                                  MODFLOW-2005     
      U.S. GEOLOGICAL SURVEY MODULAR FINITE-DIFFERENCE GROUND-WATER FLOW MODEL
                            VERSION 1.12.00 2/3/2017

 LIST FILE: example-model.lst
                         UNIT   11

 OPENING example-model.cbc
 FILE TYPE:DATA(BINARY)   UNIT    9   STATUS:REPLACE
 FORMAT:BINARY                 ACCESS:SEQUENTIAL          

 OPENING example-model.dis
 FILE TYPE:DIS   UNIT   12   STATUS:OLD    
 FORMAT:FORMATTED              ACCESS:SEQUENTIAL          

 OPENING example-model.bas
 FILE TYPE:BAS6   UNIT   13   STATUS:OLD    
 FORMAT:FORMATTED              ACCESS:SEQUENTIAL          

 OPENING example-model.oc
 FILE TYPE:OC   UNIT   39   STATUS:OLD    
 FORMAT:FORMATTED              ACCESS:SEQUENTIAL          

 OPENING example-model.fhd
 FILE TYPE:DATA   UNIT   37   STATUS:REPLACE
 FORMAT:FORMATTED              ACCESS:SEQUENTIAL          

 OPENING example-model.fdn
 FILE TYPE:DATA   UNIT   38   STATUS:REPLACE
 FORMAT:FORMATTED              ACCESS:SEQUENTIAL          

 OPENING example-model.pcg
 FILE TYPE:PCG   UNIT   18   STATUS:OLD    
 FORMAT:FORMATTED              ACCESS:SEQUENTIAL          

 OPENING example-model.lpf
 FILE TYPE:LPF   UNIT   14   STATUS:OLD    
 FORMAT:FORMATTED              ACCESS:SEQUENTIAL          

 OPENING example-model.chd
 FILE TYPE:CHD   UNIT   17   STATUS:OLD    
 FORMAT:FORMATTED              ACCESS:SEQUENTIAL          

 OPENING example-model.wel
 FILE TYPE:WEL   UNIT   20   STATUS:OLD    
 FORMAT:FORMATTED              ACCESS:SEQUENTIAL          

 OPENING example-model.zon
 FILE TYPE:ZONE   UNIT   15   STATUS:OLD    
 FORMAT:FORMATTED              ACCESS:SEQUENTIAL          

 OPENING example-model.mlt
 FILE TYPE:MULT   UNIT   16   STATUS:OLD    
 FORMAT:FORMATTED              ACCESS:SEQUENTIAL          

 OPENING example-model.pval
 FILE TYPE:PVAL   UNIT   52   STATUS:OLD    
 FORMAT:FORMATTED              ACCESS:SEQUENTIAL          

 BAS -- BASIC PACKAGE, VERSION 7, 5/2/2005 INPUT READ FROM UNIT   13
 
 MODFLOW was compiled using mixed precision
 Precision of REAL variables:           6
 Precision of DOUBLE PRECISION variables:          15

 DISCRETIZATION INPUT DATA READ FROM UNIT   12
 # Discretization File created on 2017-05-30 by ModelMuse version 3.9.0.0.
 # Upper left corner: (0, 0)
 # Lower left corner: (0, -1000)
 # Upper right corner: (1000, 0)
 # Lower right corner: (1000, -1000)
 # Grid angle (in degrees counterclockwise): 0
    9 LAYERS        10 ROWS        10 COLUMNS
    1 STRESS PERIOD(S) IN SIMULATION
 MODEL TIME UNIT IS SECONDS
 MODEL LENGTH UNIT IS METERS
  Confining bed flag for each layer:
   0   0   0   0   0   0   0   0   0

                     DELR =   100.000    

                     DELC =   100.000    



           TOP ELEVATION OF LAYER 1
 READING ON UNIT   12 WITH FORMAT: (FREE)              

            1           2           3           4           5           6           7           8           9          10
 ........................................................................................................................
   1   0.1054       1.004       1.245       1.049       1.131       2.062       3.085       3.454       2.443       1.000    
   2   0.9517       1.200       1.007       1.423       3.324       4.657       5.033       5.017       4.687       1.335    
   3    1.363       1.049       1.629       3.611       4.922       5.046       6.143       8.543       5.030       1.393    
   4    1.445       1.010       3.016       4.929       5.076       7.085       8.936       6.394       4.698       1.016    
   5    1.331       1.448       4.595       5.038       7.155       8.977       6.768       5.000       2.335       1.156    
   6    1.019       3.180       5.001       6.944       8.995       6.880       5.000       3.552       1.008       1.137    
   7    1.175       4.373       5.518       9.000       6.928       5.001       3.814       1.110       1.196      0.1859    
   8    1.081       2.581       4.998       5.175       5.000       4.073       1.174       1.233      0.7854     -0.8024    
   9    1.189       1.089       1.242       2.504       2.694       1.269       1.208       1.167     -0.3191     -0.9883    
  10   0.3984       1.800       1.877       1.361       1.136       1.133       1.081     -0.1252     -0.9473     -0.7639    



             MODEL LAYER BOTTOM EL. FOR LAYER   1
 READING ON UNIT   12 WITH FORMAT: (FREE)              

            1           2           3           4           5           6           7           8           9          10
 ........................................................................................................................
   1   -5.105      -6.004      -6.245      -6.049      -6.131      -7.062      -8.085      -8.454      -7.443      -6.000    
   2   -5.952      -6.200      -6.007      -6.423      -8.324      -9.657      -10.03      -10.02      -9.687      -6.335    
   3   -6.363      -6.049      -6.629      -8.611      -9.922      -10.05      -11.14      -13.54      -10.03      -6.393    
   4   -6.445      -6.010      -8.016      -9.929      -10.08      -12.09      -13.94      -11.39      -9.698      -6.016    
   5   -6.331      -6.448      -9.595      -10.04      -12.15      -13.98      -11.77     -10.000      -7.335      -6.156    
   6   -6.019      -8.180      -10.00      -11.94      -13.99      -11.88      -10.00      -8.552      -6.008      -6.137    
   7   -6.175      -9.373      -10.52      -14.00      -11.93      -10.00      -8.814      -6.110      -6.196      -5.186    
   8   -6.081      -7.581      -9.998      -10.18      -10.00      -9.073      -6.174      -6.233      -5.785      -4.198    
   9   -6.189      -6.089      -6.242      -7.504      -7.694      -6.269      -6.208      -6.167      -4.681      -4.012    
  10   -5.398      -6.800      -6.877      -6.361      -6.136      -6.133      -6.081      -4.875      -4.053      -4.236    



             MODEL LAYER BOTTOM EL. FOR LAYER   2
 READING ON UNIT   12 WITH FORMAT: (FREE)              

            1           2           3           4           5           6           7           8           9          10
 ........................................................................................................................
   1   -6.262      -7.091      -7.313      -7.133      -7.208      -8.067      -9.011      -9.351      -8.418      -7.087    
   2   -7.043      -7.272      -7.094      -7.477      -9.231      -10.46      -10.81      -10.79      -10.49      -7.397    
   3   -7.422      -7.132      -7.668      -9.496      -10.70      -10.82      -11.83      -14.04      -10.80      -7.450    
   4   -7.498      -7.096      -8.947      -10.71      -10.85      -12.70      -14.41      -12.06      -10.50      -7.102    
   5   -7.392      -7.501      -10.40      -10.81      -12.76      -14.44      -12.41      -10.78      -8.319      -7.231    
   6   -7.105      -9.098      -10.78      -12.57      -14.46      -12.51      -10.78      -9.441      -7.095      -7.213    
   7   -7.249      -10.20      -11.25      -14.47      -12.55      -10.78      -9.683      -7.189      -7.268      -6.337    
   8   -7.162      -8.546      -10.78      -10.94      -10.78      -9.922      -7.248      -7.302      -6.889      -5.425    
   9   -7.262      -7.170      -7.310      -8.474      -8.650      -7.335      -7.279      -7.241      -5.871      -5.253    
  10   -6.533      -7.826      -7.896      -7.421      -7.212      -7.210      -7.162      -6.050      -5.291      -5.460    



             MODEL LAYER BOTTOM EL. FOR LAYER   3
 READING ON UNIT   12 WITH FORMAT: (FREE)              

            1           2           3           4           5           6           7           8           9          10
 ........................................................................................................................
   1   -7.998      -8.722      -8.916      -8.758      -8.824      -9.574      -10.40      -10.70      -9.881      -8.718    
   2   -8.680      -8.880      -8.724      -9.059      -10.59      -11.67      -11.97      -11.96      -11.69      -8.989    
   3   -9.011      -8.758      -9.226      -10.82      -11.88      -11.98      -12.86      -14.80      -11.97      -9.035    
   4   -9.077      -8.726      -10.34      -11.88      -12.00      -13.62      -15.11      -13.07      -11.70      -8.731    
   5   -8.985      -9.079      -11.62      -11.97      -13.68      -15.15      -13.37      -11.94      -9.794      -8.844    
   6   -8.734      -10.48      -11.94      -13.51      -15.16      -13.46      -11.94      -10.77      -8.725      -8.829    
   7   -8.859      -11.44      -12.36      -15.17      -13.50      -11.94      -10.99      -8.807      -8.876      -8.062    
   8   -8.784      -9.993      -11.94      -12.08      -11.94      -11.19      -8.859      -8.906      -8.546      -7.266    
   9   -8.871      -8.791      -8.913      -9.930      -10.08      -8.935      -8.886      -8.853      -7.655      -7.116    
  10   -8.234      -9.363      -9.425      -9.010      -8.828      -8.826      -8.784      -7.812      -7.149      -7.297    



             MODEL LAYER BOTTOM EL. FOR LAYER   4
 READING ON UNIT   12 WITH FORMAT: (FREE)              

            1           2           3           4           5           6           7           8           9          10
 ........................................................................................................................
   1   -10.60      -11.17      -11.32      -11.20      -11.25      -11.83      -12.48      -12.71      -12.08      -11.17    
   2   -11.13      -11.29      -11.17      -11.43      -12.63      -13.47      -13.71      -13.70      -13.49      -11.38    
   3   -11.39      -11.20      -11.56      -12.81      -13.64      -13.72      -14.41      -15.93      -13.71      -11.41    
   4   -11.45      -11.17      -12.44      -13.64      -13.74      -15.01      -16.17      -14.57      -13.50      -11.18    
   5   -11.37      -11.45      -13.43      -13.71      -15.05      -16.20      -14.80      -13.69      -12.01      -11.26    
   6   -11.18      -12.54      -13.69      -14.92      -16.21      -14.88      -13.69      -12.78      -11.17      -11.25    
   7   -11.28      -13.29      -14.02      -16.21      -14.91      -13.69      -12.94      -11.23      -11.29      -10.65    
   8   -11.22      -12.16      -13.69      -13.80      -13.69      -13.10      -11.27      -11.31      -11.03      -10.03    
   9   -11.28      -11.22      -11.32      -12.11      -12.23      -11.33      -11.30      -11.27      -10.33      -9.910    
  10   -10.79      -11.67      -11.72      -11.39      -11.25      -11.25      -11.22      -10.45      -9.936      -10.05    



             MODEL LAYER BOTTOM EL. FOR LAYER   5
 READING ON UNIT   12 WITH FORMAT: (FREE)              

            1           2           3           4           5           6           7           8           9          10
 ........................................................................................................................
   1   -14.50      -14.84      -14.93      -14.85      -14.88      -15.23      -15.60      -15.74      -15.37      -14.83    
   2   -14.82      -14.91      -14.84      -14.99      -15.69      -16.18      -16.32      -16.32      -16.20      -14.96    
   3   -14.97      -14.85      -15.07      -15.80      -16.28      -16.33      -16.73      -17.62      -16.32      -14.98    
   4   -15.00      -14.84      -15.58      -16.28      -16.34      -17.08      -17.76      -16.83      -16.20      -14.84    
   5   -14.96      -15.00      -16.16      -16.32      -17.11      -17.78      -16.96      -16.31      -15.33      -14.89    
   6   -14.84      -15.64      -16.31      -17.03      -17.78      -17.00      -16.31      -15.78      -14.84      -14.89    
   7   -14.90      -16.08      -16.50      -17.79      -17.02      -16.31      -15.87      -14.88      -14.91      -14.53    
   8   -14.86      -15.42      -16.31      -16.38      -16.31      -15.97      -14.90      -14.92      -14.76      -14.17    
   9   -14.90      -14.87      -14.92      -15.39      -15.46      -14.93      -14.91      -14.90      -14.35      -14.10    
  10   -14.61      -15.13      -15.16      -14.97      -14.88      -14.88      -14.86      -14.42      -14.12      -14.18    



             MODEL LAYER BOTTOM EL. FOR LAYER   6
 READING ON UNIT   12 WITH FORMAT: (FREE)              

            1           2           3           4           5           6           7           8           9          10
 ........................................................................................................................
   1   -17.11      -17.28      -17.33      -17.29      -17.31      -17.49      -17.69      -17.76      -17.56      -17.28    
   2   -17.27      -17.32      -17.28      -17.36      -17.73      -17.99      -18.06      -18.06      -18.00      -17.35    
   3   -17.35      -17.29      -17.40      -17.79      -18.04      -18.07      -18.28      -18.75      -18.06      -17.36    
   4   -17.37      -17.28      -17.67      -18.04      -18.07      -18.46      -18.82      -18.33      -18.00      -17.28    
   5   -17.35      -17.37      -17.98      -18.07      -18.48      -18.83      -18.40      -18.06      -17.54      -17.31    
   6   -17.29      -17.70      -18.06      -18.44      -18.83      -18.42      -18.06      -17.78      -17.28      -17.31    
   7   -17.32      -17.94      -18.16      -18.83      -18.43      -18.06      -17.83      -17.30      -17.32      -17.12    
   8   -17.30      -17.59      -18.06      -18.09      -18.06      -17.88      -17.32      -17.33      -17.24      -16.93    
   9   -17.32      -17.30      -17.33      -17.57      -17.61      -17.33      -17.32      -17.31      -17.03      -16.90    
  10   -17.16      -17.44      -17.45      -17.35      -17.31      -17.31      -17.30      -17.06      -16.90      -16.94    



             MODEL LAYER BOTTOM EL. FOR LAYER   7
 READING ON UNIT   12 WITH FORMAT: (FREE)              

            1           2           3           4           5           6           7           8           9          10
 ........................................................................................................................
   1   -18.84      -18.91      -18.93      -18.92      -18.92      -19.00      -19.07      -19.10      -19.02      -18.91    
   2   -18.91      -18.93      -18.91      -18.95      -19.09      -19.20      -19.23      -19.22      -19.20      -18.94    
   3   -18.94      -18.92      -18.96      -19.12      -19.22      -19.23      -19.31      -19.50      -19.23      -18.94    
   4   -18.95      -18.91      -19.07      -19.22      -19.23      -19.39      -19.53      -19.33      -19.20      -18.91    
   5   -18.94      -18.95      -19.19      -19.23      -19.39      -19.53      -19.36      -19.22      -19.02      -18.92    
   6   -18.91      -19.08      -19.22      -19.37      -19.53      -19.37      -19.22      -19.11      -18.91      -18.92    
   7   -18.93      -19.17      -19.26      -19.53      -19.37      -19.22      -19.13      -18.92      -18.93      -18.85    
   8   -18.92      -19.04      -19.22      -19.24      -19.22      -19.15      -18.93      -18.93      -18.90      -18.77    
   9   -18.93      -18.92      -18.93      -19.03      -19.04      -18.93      -18.93      -18.93      -18.81      -18.76    
  10   -18.87      -18.97      -18.98      -18.94      -18.92      -18.92      -18.92      -18.83      -18.76      -18.78    

   MODEL LAYER BOTTOM EL. =  -20.0000     FOR LAYER   8

   MODEL LAYER BOTTOM EL. =  -30.0000     FOR LAYER   9


 STRESS PERIOD     LENGTH       TIME STEPS     MULTIPLIER FOR DELT    SS FLAG
 ----------------------------------------------------------------------------
        1         1.000000          1                    1.000         SS

 STEADY-STATE SIMULATION



 
 # Basic Package file created on 2017-05-30 by ModelMuse version 3.9.0.0.        
 THE FREE FORMAT OPTION HAS BEEN SELECTED
 THE PRINTTIME OPTION HAS BEEN SELECTED
 CALCULATE FLOW BETWEEN ADJACENT CONSTANT-HEAD CELLS

           BOUNDARY ARRAY =              1 FOR LAYER   1

           BOUNDARY ARRAY =              1 FOR LAYER   2

           BOUNDARY ARRAY =              1 FOR LAYER   3

           BOUNDARY ARRAY =              1 FOR LAYER   4

           BOUNDARY ARRAY =              1 FOR LAYER   5

           BOUNDARY ARRAY =              1 FOR LAYER   6

           BOUNDARY ARRAY =              1 FOR LAYER   7

           BOUNDARY ARRAY =              1 FOR LAYER   8

           BOUNDARY ARRAY =              1 FOR LAYER   9

 AQUIFER HEAD WILL BE SET TO -1.00000E+20 AT ALL NO-FLOW NODES (IBOUND=0).

             INITIAL HEAD =   30.0000     FOR LAYER   1

             INITIAL HEAD =   30.0000     FOR LAYER   2

             INITIAL HEAD =   30.0000     FOR LAYER   3

             INITIAL HEAD =   30.0000     FOR LAYER   4

             INITIAL HEAD =   30.0000     FOR LAYER   5

             INITIAL HEAD =   30.0000     FOR LAYER   6

             INITIAL HEAD =   30.0000     FOR LAYER   7

             INITIAL HEAD =   30.0000     FOR LAYER   8

             INITIAL HEAD =   30.0000     FOR LAYER   9
 # Output Control file created on 2017-05-30 by ModelMuse version 3.9.0.0.

 OUTPUT CONTROL IS SPECIFIED ONLY AT TIME STEPS FOR WHICH OUTPUT IS DESIRED
 HEADS WILL BE SAVED WITH FORMAT: (10(1X1PE13.5))     
 SAVED HEADS WILL BE LABELED
 DRAWDOWN WILL BE SAVED WITH FORMAT: (10(1X1PE13.5))     
 SAVED DRAWDOWN WILL BE LABELED
 COMPACT CELL-BY-CELL BUDGET FILES WILL BE WRITTEN
 AUXILIARY DATA WILL BE SAVED IN CELL-BY-CELL BUDGET FILES
 HEAD PRINT FORMAT CODE IS   0    DRAWDOWN PRINT FORMAT CODE IS   0
 HEADS WILL BE SAVED ON UNIT   37    DRAWDOWNS WILL BE SAVED ON UNIT   38

 ZONE OPTION, INPUT READ FROM UNIT   15
 # Zone (ZONE) File created on 2017-05-30 by ModelMuse version 3.9.0.0.
    12 ZONE ARRAYS

 MULTIPLIER OPTION, INPUT READ FROM UNIT   16
 # Multiplier (MULT) File created on 2017-05-30 by ModelMuse version 3.9.0.0.
   9 MULTIPLIER ARRAYS



            MULT. ARRAY: HK_Par2_M1
 READING ON UNIT   16 WITH FORMAT: (FREE)              

            1           2           3           4           5           6           7           8           9          10
 ........................................................................................................................
   1   0.5000      0.5000      0.5000      0.5000      0.5124      0.5650      0.6175      0.6701      0.7000      0.7000    
   2   0.5000      0.5000      0.5000      0.5000      0.5262      0.5788      0.6314      0.6840      0.7000      0.7000    
   3   0.5000      0.5000      0.5000      0.5000      0.5401      0.5926      0.6452      0.6978      0.7000      0.7000    
   4   0.5000      0.4955      0.4815      0.4675      0.5211      0.5986      0.6591      0.7000      0.7000      0.7000    
   5   0.4500      0.4360      0.4219      0.4079      0.4400      0.5175      0.5962      0.6830      0.7000      0.7000    
   6   0.3904      0.3764      0.3624      0.3484      0.3589      0.4399      0.5267      0.6135      0.7000      0.7000    
   7   0.3309      0.3169      0.3029      0.3000      0.3000      0.3704      0.4572      0.5441      0.6309      0.7000    
   8   0.3000      0.3000      0.3000      0.3000      0.3000      0.3009      0.3878      0.4746      0.5614      0.6482    
   9   0.3000      0.3000      0.3000      0.3000      0.3000      0.3000      0.3183      0.4051      0.4920      0.5788    
  10   0.3000      0.3000      0.3000      0.3000      0.3000      0.3000      0.3000      0.3357      0.4225      0.5093    



            MULT. ARRAY: HK_Par2_M2
 READING ON UNIT   16 WITH FORMAT: (FREE)              

            1           2           3           4           5           6           7           8           9          10
 ........................................................................................................................
   1   0.5000      0.5000      0.5000      0.5000      0.5124      0.5650      0.6175      0.6701      0.7000      0.7000    
   2   0.5000      0.5000      0.5000      0.5000      0.5262      0.5788      0.6314      0.6840      0.7000      0.7000    
   3   0.5000      0.5000      0.5000      0.5000      0.5401      0.5926      0.6452      0.6978      0.7000      0.7000    
   4   0.5000      0.4955      0.4815      0.4675      0.5211      0.5986      0.6591      0.7000      0.7000      0.7000    
   5   0.4500      0.4360      0.4219      0.4079      0.4400      0.5175      0.5962      0.6830      0.7000      0.7000    
   6   0.3904      0.3764      0.3624      0.3484      0.3589      0.4399      0.5267      0.6135      0.7000      0.7000    
   7   0.3309      0.3169      0.3029      0.3000      0.3000      0.3704      0.4572      0.5441      0.6309      0.7000    
   8   0.3000      0.3000      0.3000      0.3000      0.3000      0.3009      0.3878      0.4746      0.5614      0.6482    
   9   0.3000      0.3000      0.3000      0.3000      0.3000      0.3000      0.3183      0.4051      0.4920      0.5788    
  10   0.3000      0.3000      0.3000      0.3000      0.3000      0.3000      0.3000      0.3357      0.4225      0.5093    



            MULT. ARRAY: HK_Par2_M3
 READING ON UNIT   16 WITH FORMAT: (FREE)              

            1           2           3           4           5           6           7           8           9          10
 ........................................................................................................................
   1   0.5000      0.5000      0.5000      0.5000      0.5124      0.5650      0.6175      0.6701      0.7000      0.7000    
   2   0.5000      0.5000      0.5000      0.5000      0.5262      0.5788      0.6314      0.6840      0.7000      0.7000    
   3   0.5000      0.5000      0.5000      0.5000      0.5401      0.5926      0.6452      0.6978      0.7000      0.7000    
   4   0.5000      0.4955      0.4815      0.4675      0.5211      0.5986      0.6591      0.7000      0.7000      0.7000    
   5   0.4500      0.4360      0.4219      0.4079      0.4400      0.5175      0.5962      0.6830      0.7000      0.7000    
   6   0.3904      0.3764      0.3624      0.3484      0.3589      0.4399      0.5267      0.6135      0.7000      0.7000    
   7   0.3309      0.3169      0.3029      0.3000      0.3000      0.3704      0.4572      0.5441      0.6309      0.7000    
   8   0.3000      0.3000      0.3000      0.3000      0.3000      0.3009      0.3878      0.4746      0.5614      0.6482    
   9   0.3000      0.3000      0.3000      0.3000      0.3000      0.3000      0.3183      0.4051      0.4920      0.5788    
  10   0.3000      0.3000      0.3000      0.3000      0.3000      0.3000      0.3000      0.3357      0.4225      0.5093    



            MULT. ARRAY: HK_Par2_M4
 READING ON UNIT   16 WITH FORMAT: (FREE)              

            1           2           3           4           5           6           7           8           9          10
 ........................................................................................................................
   1   0.5000      0.5000      0.5000      0.5000      0.5124      0.5650      0.6175      0.6701      0.7000      0.7000    
   2   0.5000      0.5000      0.5000      0.5000      0.5262      0.5788      0.6314      0.6840      0.7000      0.7000    
   3   0.5000      0.5000      0.5000      0.5000      0.5401      0.5926      0.6452      0.6978      0.7000      0.7000    
   4   0.5000      0.4955      0.4815      0.4675      0.5211      0.5986      0.6591      0.7000      0.7000      0.7000    
   5   0.4500      0.4360      0.4219      0.4079      0.4400      0.5175      0.5962      0.6830      0.7000      0.7000    
   6   0.3904      0.3764      0.3624      0.3484      0.3589      0.4399      0.5267      0.6135      0.7000      0.7000    
   7   0.3309      0.3169      0.3029      0.3000      0.3000      0.3704      0.4572      0.5441      0.6309      0.7000    
   8   0.3000      0.3000      0.3000      0.3000      0.3000      0.3009      0.3878      0.4746      0.5614      0.6482    
   9   0.3000      0.3000      0.3000      0.3000      0.3000      0.3000      0.3183      0.4051      0.4920      0.5788    
  10   0.3000      0.3000      0.3000      0.3000      0.3000      0.3000      0.3000      0.3357      0.4225      0.5093    



            MULT. ARRAY: HK_Par2_M5
 READING ON UNIT   16 WITH FORMAT: (FREE)              

            1           2           3           4           5           6           7           8           9          10
 ........................................................................................................................
   1   0.5000      0.5000      0.5000      0.5000      0.5124      0.5650      0.6175      0.6701      0.7000      0.7000    
   2   0.5000      0.5000      0.5000      0.5000      0.5262      0.5788      0.6314      0.6840      0.7000      0.7000    
   3   0.5000      0.5000      0.5000      0.5000      0.5401      0.5926      0.6452      0.6978      0.7000      0.7000    
   4   0.5000      0.4955      0.4815      0.4675      0.5211      0.5986      0.6591      0.7000      0.7000      0.7000    
   5   0.4500      0.4360      0.4219      0.4079      0.4400      0.5175      0.5962      0.6830      0.7000      0.7000    
   6   0.3904      0.3764      0.3624      0.3484      0.3589      0.4399      0.5267      0.6135      0.7000      0.7000    
   7   0.3309      0.3169      0.3029      0.3000      0.3000      0.3704      0.4572      0.5441      0.6309      0.7000    
   8   0.3000      0.3000      0.3000      0.3000      0.3000      0.3009      0.3878      0.4746      0.5614      0.6482    
   9   0.3000      0.3000      0.3000      0.3000      0.3000      0.3000      0.3183      0.4051      0.4920      0.5788    
  10   0.3000      0.3000      0.3000      0.3000      0.3000      0.3000      0.3000      0.3357      0.4225      0.5093    



            MULT. ARRAY: HK_Par2_M6
 READING ON UNIT   16 WITH FORMAT: (FREE)              

            1           2           3           4           5           6           7           8           9          10
 ........................................................................................................................
   1   0.5000      0.5000      0.5000      0.5000      0.5124      0.5650      0.6175      0.6701      0.7000      0.7000    
   2   0.5000      0.5000      0.5000      0.5000      0.5262      0.5788      0.6314      0.6840      0.7000      0.7000    
   3   0.5000      0.5000      0.5000      0.5000      0.5401      0.5926      0.6452      0.6978      0.7000      0.7000    
   4   0.5000      0.4955      0.4815      0.4675      0.5211      0.5986      0.6591      0.7000      0.7000      0.7000    
   5   0.4500      0.4360      0.4219      0.4079      0.4400      0.5175      0.5962      0.6830      0.7000      0.7000    
   6   0.3904      0.3764      0.3624      0.3484      0.3589      0.4399      0.5267      0.6135      0.7000      0.7000    
   7   0.3309      0.3169      0.3029      0.3000      0.3000      0.3704      0.4572      0.5441      0.6309      0.7000    
   8   0.3000      0.3000      0.3000      0.3000      0.3000      0.3009      0.3878      0.4746      0.5614      0.6482    
   9   0.3000      0.3000      0.3000      0.3000      0.3000      0.3000      0.3183      0.4051      0.4920      0.5788    
  10   0.3000      0.3000      0.3000      0.3000      0.3000      0.3000      0.3000      0.3357      0.4225      0.5093    



            MULT. ARRAY: HK_Par2_M7
 READING ON UNIT   16 WITH FORMAT: (FREE)              

            1           2           3           4           5           6           7           8           9          10
 ........................................................................................................................
   1   0.5000      0.5000      0.5000      0.5000      0.5124      0.5650      0.6175      0.6701      0.7000      0.7000    
   2   0.5000      0.5000      0.5000      0.5000      0.5262      0.5788      0.6314      0.6840      0.7000      0.7000    
   3   0.5000      0.5000      0.5000      0.5000      0.5401      0.5926      0.6452      0.6978      0.7000      0.7000    
   4   0.5000      0.4955      0.4815      0.4675      0.5211      0.5986      0.6591      0.7000      0.7000      0.7000    
   5   0.4500      0.4360      0.4219      0.4079      0.4400      0.5175      0.5962      0.6830      0.7000      0.7000    
   6   0.3904      0.3764      0.3624      0.3484      0.3589      0.4399      0.5267      0.6135      0.7000      0.7000    
   7   0.3309      0.3169      0.3029      0.3000      0.3000      0.3704      0.4572      0.5441      0.6309      0.7000    
   8   0.3000      0.3000      0.3000      0.3000      0.3000      0.3009      0.3878      0.4746      0.5614      0.6482    
   9   0.3000      0.3000      0.3000      0.3000      0.3000      0.3000      0.3183      0.4051      0.4920      0.5788    
  10   0.3000      0.3000      0.3000      0.3000      0.3000      0.3000      0.3000      0.3357      0.4225      0.5093    



            MULT. ARRAY: HK_Par2_M8
 READING ON UNIT   16 WITH FORMAT: (FREE)              

            1           2           3           4           5           6           7           8           9          10
 ........................................................................................................................
   1   0.5000      0.5000      0.5000      0.5000      0.5124      0.5650      0.6175      0.6701      0.7000      0.7000    
   2   0.5000      0.5000      0.5000      0.5000      0.5262      0.5788      0.6314      0.6840      0.7000      0.7000    
   3   0.5000      0.5000      0.5000      0.5000      0.5401      0.5926      0.6452      0.6978      0.7000      0.7000    
   4   0.5000      0.4955      0.4815      0.4675      0.5211      0.5986      0.6591      0.7000      0.7000      0.7000    
   5   0.4500      0.4360      0.4219      0.4079      0.4400      0.5175      0.5962      0.6830      0.7000      0.7000    
   6   0.3904      0.3764      0.3624      0.3484      0.3589      0.4399      0.5267      0.6135      0.7000      0.7000    
   7   0.3309      0.3169      0.3029      0.3000      0.3000      0.3704      0.4572      0.5441      0.6309      0.7000    
   8   0.3000      0.3000      0.3000      0.3000      0.3000      0.3009      0.3878      0.4746      0.5614      0.6482    
   9   0.3000      0.3000      0.3000      0.3000      0.3000      0.3000      0.3183      0.4051      0.4920      0.5788    
  10   0.3000      0.3000      0.3000      0.3000      0.3000      0.3000      0.3000      0.3357      0.4225      0.5093    



            MULT. ARRAY: HK_Par2_M9
 READING ON UNIT   16 WITH FORMAT: (FREE)              

            1           2           3           4           5           6           7           8           9          10
 ........................................................................................................................
   1   0.5000      0.5000      0.5000      0.5000      0.5124      0.5650      0.6175      0.6701      0.7000      0.7000    
   2   0.5000      0.5000      0.5000      0.5000      0.5262      0.5788      0.6314      0.6840      0.7000      0.7000    
   3   0.5000      0.5000      0.5000      0.5000      0.5401      0.5926      0.6452      0.6978      0.7000      0.7000    
   4   0.5000      0.4955      0.4815      0.4675      0.5211      0.5986      0.6591      0.7000      0.7000      0.7000    
   5   0.4500      0.4360      0.4219      0.4079      0.4400      0.5175      0.5962      0.6830      0.7000      0.7000    
   6   0.3904      0.3764      0.3624      0.3484      0.3589      0.4399      0.5267      0.6135      0.7000      0.7000    
   7   0.3309      0.3169      0.3029      0.3000      0.3000      0.3704      0.4572      0.5441      0.6309      0.7000    
   8   0.3000      0.3000      0.3000      0.3000      0.3000      0.3009      0.3878      0.4746      0.5614      0.6482    
   9   0.3000      0.3000      0.3000      0.3000      0.3000      0.3000      0.3183      0.4051      0.4920      0.5788    
  10   0.3000      0.3000      0.3000      0.3000      0.3000      0.3000      0.3000      0.3357      0.4225      0.5093    



             ZONE ARRAY: HK_Par1_Z1
 READING ON UNIT   15 WITH FORMAT: (FREE)              

          1     2     3     4     5     6     7     8     9    10
 ................................................................
   1      0     0     0     0     0     0     0     0     0     0
   2      0     0     0     0     0     0     0     0     0     0
   3      0     0     0     0     0     0     0     0     0     0
   4      0     0     0     0     0     0     0     0     0     0
   5      0     0     0     0     0     0     0     0     0     0
   6      0     0     0     1     1     1     1     0     0     0
   7      0     0     0     1     1     1     1     0     0     0
   8      0     0     0     1     1     1     1     0     0     0
   9      0     0     0     1     1     1     1     0     0     0
  10      0     0     0     1     1     1     1     0     0     0



             ZONE ARRAY: HK_Par1_Z2
 READING ON UNIT   15 WITH FORMAT: (FREE)              

          1     2     3     4     5     6     7     8     9    10
 ................................................................
   1      0     0     0     0     0     0     0     0     0     0
   2      0     0     0     0     0     0     0     0     0     0
   3      0     0     0     0     0     0     0     0     0     0
   4      0     0     0     0     0     0     0     0     0     0
   5      0     0     0     0     0     0     0     0     0     0
   6      0     0     0     1     1     1     1     0     0     0
   7      0     0     0     1     1     1     1     0     0     0
   8      0     0     0     1     1     1     1     0     0     0
   9      0     0     0     1     1     1     1     0     0     0
  10      0     0     0     1     1     1     1     0     0     0



             ZONE ARRAY: HK_Par1_Z3
 READING ON UNIT   15 WITH FORMAT: (FREE)              

          1     2     3     4     5     6     7     8     9    10
 ................................................................
   1      0     0     0     0     0     0     0     0     0     0
   2      0     0     0     0     0     0     0     0     0     0
   3      0     0     0     0     0     0     0     0     0     0
   4      0     0     0     0     0     0     0     0     0     0
   5      0     0     0     0     0     0     0     0     0     0
   6      0     0     0     1     1     1     1     0     0     0
   7      0     0     0     1     1     1     1     0     0     0
   8      0     0     0     1     1     1     1     0     0     0
   9      0     0     0     1     1     1     1     0     0     0
  10      0     0     0     1     1     1     1     0     0     0



             ZONE ARRAY: HK_Par1_Z4
 READING ON UNIT   15 WITH FORMAT: (FREE)              

          1     2     3     4     5     6     7     8     9    10
 ................................................................
   1      0     0     0     0     0     0     0     0     0     0
   2      0     0     0     0     0     0     0     0     0     0
   3      0     0     0     0     0     0     0     0     0     0
   4      0     0     0     0     0     0     0     0     0     0
   5      0     0     0     0     0     0     0     0     0     0
   6      0     0     0     1     1     1     1     0     0     0
   7      0     0     0     1     1     1     1     0     0     0
   8      0     0     0     1     1     1     1     0     0     0
   9      0     0     0     1     1     1     1     0     0     0
  10      0     0     0     1     1     1     1     0     0     0



             ZONE ARRAY: HK_Par1_Z5
 READING ON UNIT   15 WITH FORMAT: (FREE)              

          1     2     3     4     5     6     7     8     9    10
 ................................................................
   1      0     0     0     0     0     0     0     0     0     0
   2      0     0     0     0     0     0     0     0     0     0
   3      0     0     0     0     0     0     0     0     0     0
   4      0     0     0     0     0     0     0     0     0     0
   5      0     0     0     0     0     0     0     0     0     0
   6      0     0     0     1     0     1     1     0     0     0
   7      0     0     0     0     1     1     1     0     0     0
   8      0     0     0     1     1     1     1     0     0     0
   9      0     0     0     1     1     1     1     0     0     0
  10      0     0     0     1     1     1     1     0     0     0



             ZONE ARRAY: HK_Par1_Z6
 READING ON UNIT   15 WITH FORMAT: (FREE)              

          1     2     3     4     5     6     7     8     9    10
 ................................................................
   1      0     0     0     0     0     0     0     0     0     0
   2      0     0     0     0     0     0     0     0     0     0
   3      0     0     0     0     0     0     0     0     0     0
   4      0     0     0     0     0     0     0     0     0     0
   5      0     0     0     0     0     0     0     0     0     0
   6      0     0     0     0     0     0     0     0     0     0
   7      0     0     0     0     0     0     0     0     0     0
   8      0     0     0     0     0     0     1     0     0     0
   9      0     0     0     0     0     1     1     0     0     0
  10      0     0     0     1     1     1     1     0     0     0



             ZONE ARRAY: HK_Par2_Z1
 READING ON UNIT   15 WITH FORMAT: (FREE)              

          1     2     3     4     5     6     7     8     9    10
 ................................................................
   1      1     1     1     1     1     1     1     1     1     1
   2      1     1     1     1     1     1     1     1     1     1
   3      1     1     1     1     1     1     1     1     1     1
   4      1     1     1     1     1     1     1     1     1     1
   5      1     1     1     1     1     1     1     1     1     1
   6      1     1     1     0     0     0     0     1     1     1
   7      1     1     1     0     0     0     0     1     1     1
   8      1     1     1     0     0     0     0     1     1     1
   9      1     1     1     0     0     0     0     1     1     1
  10      1     1     1     0     0     0     0     1     1     1



             ZONE ARRAY: HK_Par2_Z2
 READING ON UNIT   15 WITH FORMAT: (FREE)              

          1     2     3     4     5     6     7     8     9    10
 ................................................................
   1      1     1     1     1     1     1     1     1     1     1
   2      1     1     1     1     1     1     1     1     1     1
   3      1     1     1     1     1     1     1     1     1     1
   4      1     1     1     1     1     1     1     1     1     1
   5      1     1     1     1     1     1     1     1     1     1
   6      1     1     1     0     0     0     0     1     1     1
   7      1     1     1     0     0     0     0     1     1     1
   8      1     1     1     0     0     0     0     1     1     1
   9      1     1     1     0     0     0     0     1     1     1
  10      1     1     1     0     0     0     0     1     1     1



             ZONE ARRAY: HK_Par2_Z3
 READING ON UNIT   15 WITH FORMAT: (FREE)              

          1     2     3     4     5     6     7     8     9    10
 ................................................................
   1      1     1     1     1     1     1     1     1     1     1
   2      1     1     1     1     1     1     1     1     1     1
   3      1     1     1     1     1     1     1     1     1     1
   4      1     1     1     1     1     1     1     1     1     1
   5      1     1     1     1     1     1     1     1     1     1
   6      1     1     1     0     0     0     0     1     1     1
   7      1     1     1     0     0     0     0     1     1     1
   8      1     1     1     0     0     0     0     1     1     1
   9      1     1     1     0     0     0     0     1     1     1
  10      1     1     1     0     0     0     0     1     1     1



             ZONE ARRAY: HK_Par2_Z4
 READING ON UNIT   15 WITH FORMAT: (FREE)              

          1     2     3     4     5     6     7     8     9    10
 ................................................................
   1      1     1     1     1     1     1     1     1     1     1
   2      1     1     1     1     1     1     1     1     1     1
   3      1     1     1     1     1     1     1     1     1     1
   4      1     1     1     1     1     1     1     1     1     1
   5      1     1     1     1     1     1     1     1     1     1
   6      1     1     1     0     0     0     0     1     1     1
   7      1     1     1     0     0     0     0     1     1     1
   8      1     1     1     0     0     0     0     1     1     1
   9      1     1     1     0     0     0     0     1     1     1
  10      1     1     1     0     0     0     0     1     1     1



             ZONE ARRAY: HK_Par2_Z5
 READING ON UNIT   15 WITH FORMAT: (FREE)              

          1     2     3     4     5     6     7     8     9    10
 ................................................................
   1      1     1     1     1     1     1     1     1     1     1
   2      1     1     1     1     1     1     1     1     1     1
   3      1     1     1     1     1     1     1     1     1     1
   4      1     1     1     1     1     1     1     1     1     1
   5      1     1     1     1     1     1     1     1     1     1
   6      1     1     1     0     1     0     0     1     1     1
   7      1     1     1     1     0     0     0     1     1     1
   8      1     1     1     0     0     0     0     1     1     1
   9      1     1     1     0     0     0     0     1     1     1
  10      1     1     1     0     0     0     0     1     1     1



             ZONE ARRAY: HK_Par2_Z6
 READING ON UNIT   15 WITH FORMAT: (FREE)              

          1     2     3     4     5     6     7     8     9    10
 ................................................................
   1      1     1     1     1     1     1     1     1     1     1
   2      1     1     1     1     1     1     1     1     1     1
   3      1     1     1     1     1     1     1     1     1     1
   4      1     1     1     1     1     1     1     1     1     1
   5      1     1     1     1     1     1     1     1     1     1
   6      1     1     1     1     1     1     1     1     1     1
   7      1     1     1     1     1     1     1     1     1     1
   8      1     1     1     1     1     1     0     1     1     1
   9      1     1     1     1     1     0     0     1     1     1
  10      1     1     1     0     0     0     0     1     1     1

 PARAMETER VALUE INPUT FILE,  INPUT READ FROM UNIT   52
 # PVAL file created on 2017-05-30 by ModelMuse version 3.9.0.0.

 NUMBER OF PARAMETER VALUES TO BE READ FROM PARAMETER VALUE FILE:    4

 INFORMATION ON PARAMETERS LISTED IN PARAMETER FILE
               VALUE IN
    NAME     PARAMETER FILE
 ----------  --------------
 HK_Par1       150.00    
 HK_Par2       200.00    
 CHD_Par1      30.000    
 CHD_Par2      30.000    
 -----------------------------------------------------------------------------
 FOR THE PARAMETERS LISTED IN THE TABLE ABOVE, PARAMETER VALUES IN INDIVIDUAL
 PACKAGE INPUT FILES ARE REPLACED BY THE VALUES FROM THE PARAMETER INPUT FILE.

 LPF -- LAYER-PROPERTY FLOW PACKAGE, VERSION 7, 5/2/2005
         INPUT READ FROM UNIT   14
 # LPF: Layer Property Flow package file created on 2017-05-30 by ModelMuse version 3.9.0.0.
 CELL-BY-CELL FLOWS WILL BE SAVED ON UNIT    9
 HEAD AT CELLS THAT CONVERT TO DRY= -2.00000E+20
     2 Named Parameters     

   LAYER FLAGS:
 LAYER       LAYTYP        LAYAVG         CHANI        LAYVKA        LAYWET
 ---------------------------------------------------------------------------
    1             0             0    -1.000E+00             0             0
    2             0             0    -1.000E+00             0             0
    3             0             0    -1.000E+00             0             0
    4             0             0    -1.000E+00             0             0
    5             0             0    -1.000E+00             0             0
    6             0             0    -1.000E+00             0             0
    7             0             0    -1.000E+00             0             0
    8             0             0    -1.000E+00             0             0
    9             0             0    -1.000E+00             0             0

   INTERPRETATION OF LAYER FLAGS:
                        INTERBLOCK     HORIZONTAL    DATA IN
         LAYER TYPE   TRANSMISSIVITY   ANISOTROPY   ARRAY VKA   WETTABILITY
 LAYER      (LAYTYP)      (LAYAVG)       (CHANI)      (LAYVKA)      (LAYWET)
 ---------------------------------------------------------------------------
    1      CONFINED      HARMONIC      VARIABLE    VERTICAL K  NON-WETTABLE
    2      CONFINED      HARMONIC      VARIABLE    VERTICAL K  NON-WETTABLE
    3      CONFINED      HARMONIC      VARIABLE    VERTICAL K  NON-WETTABLE
    4      CONFINED      HARMONIC      VARIABLE    VERTICAL K  NON-WETTABLE
    5      CONFINED      HARMONIC      VARIABLE    VERTICAL K  NON-WETTABLE
    6      CONFINED      HARMONIC      VARIABLE    VERTICAL K  NON-WETTABLE
    7      CONFINED      HARMONIC      VARIABLE    VERTICAL K  NON-WETTABLE
    8      CONFINED      HARMONIC      VARIABLE    VERTICAL K  NON-WETTABLE
    9      CONFINED      HARMONIC      VARIABLE    VERTICAL K  NON-WETTABLE

 WETTING CAPABILITY IS NOT ACTIVE IN ANY LAYER

 PARAMETERS DEFINED IN THE LPF PACKAGE

 PARAMETER NAME:HK_Par1      TYPE:HK     CLUSTERS:   6
 Parameter value from package file is:    150.00    
                LAYER:   1    MULTIPLIER ARRAY: NONE    ZONE ARRAY: HK_Par1_Z1
                ZONE VALUES:    1
                LAYER:   2    MULTIPLIER ARRAY: NONE    ZONE ARRAY: HK_Par1_Z2
                ZONE VALUES:    1
                LAYER:   3    MULTIPLIER ARRAY: NONE    ZONE ARRAY: HK_Par1_Z3
                ZONE VALUES:    1
                LAYER:   4    MULTIPLIER ARRAY: NONE    ZONE ARRAY: HK_Par1_Z4
                ZONE VALUES:    1
                LAYER:   5    MULTIPLIER ARRAY: NONE    ZONE ARRAY: HK_Par1_Z5
                ZONE VALUES:    1
                LAYER:   6    MULTIPLIER ARRAY: NONE    ZONE ARRAY: HK_Par1_Z6
                ZONE VALUES:    1

 PARAMETER NAME:HK_Par2      TYPE:HK     CLUSTERS:   9
 Parameter value from package file is:    200.00    
                LAYER:   1    MULTIPLIER ARRAY: HK_Par2_M1    ZONE ARRAY: HK_Par2_Z1
                ZONE VALUES:    1
                LAYER:   2    MULTIPLIER ARRAY: HK_Par2_M2    ZONE ARRAY: HK_Par2_Z2
                ZONE VALUES:    1
                LAYER:   3    MULTIPLIER ARRAY: HK_Par2_M3    ZONE ARRAY: HK_Par2_Z3
                ZONE VALUES:    1
                LAYER:   4    MULTIPLIER ARRAY: HK_Par2_M4    ZONE ARRAY: HK_Par2_Z4
                ZONE VALUES:    1
                LAYER:   5    MULTIPLIER ARRAY: HK_Par2_M5    ZONE ARRAY: HK_Par2_Z5
                ZONE VALUES:    1
                LAYER:   6    MULTIPLIER ARRAY: HK_Par2_M6    ZONE ARRAY: HK_Par2_Z6
                ZONE VALUES:    1
                LAYER:   7    MULTIPLIER ARRAY: HK_Par2_M7    ZONE ARRAY: ALL
                LAYER:   8    MULTIPLIER ARRAY: HK_Par2_M8    ZONE ARRAY: ALL
                LAYER:   9    MULTIPLIER ARRAY: HK_Par2_M9    ZONE ARRAY: ALL

    HYD. COND. ALONG ROWS FOR LAYER   1 WILL BE DEFINED BY PARAMETERS
 (PRINT FLAG=  12)

    HYD. COND. ALONG ROWS is defined by the following parameters:
 HK_Par1   
 HK_Par2   


              HYD. COND. ALONG ROWS FOR LAYER   1

            1           2           3           4           5           6           7           8           9          10
 ........................................................................................................................
   1    100.0       100.0       100.0       100.0       102.5       113.0       123.5       134.0       140.0       140.0    
   2    100.0       100.0       100.0       100.0       105.2       115.8       126.3       136.8       140.0       140.0    
   3    100.0       100.0       100.0       100.0       108.0       118.5       129.0       139.6       140.0       140.0    
   4    100.0       99.10       96.30       93.49       104.2       119.7       131.8       140.0       140.0       140.0    
   5    89.99       87.19       84.39       81.59       88.00       103.5       119.2       136.6       140.0       140.0    
   6    78.09       75.29       72.48       150.0       150.0       150.0       150.0       122.7       140.0       140.0    
   7    66.18       63.38       60.58       150.0       150.0       150.0       150.0       108.8       126.2       140.0    
   8    60.00       60.00       60.00       150.0       150.0       150.0       150.0       94.92       112.3       129.6    
   9    60.00       60.00       60.00       150.0       150.0       150.0       150.0       81.03       98.39       115.8    
  10    60.00       60.00       60.00       150.0       150.0       150.0       150.0       67.13       84.50       101.9    



             HORIZ. ANI. (COL./ROW) FOR LAYER   1
 READING ON UNIT   14 WITH FORMAT: (FREE)              

            1           2           3           4           5           6           7           8           9          10
 ........................................................................................................................
   1    1.000       1.000       1.000       1.000      0.9758      0.8850      0.8097      0.7461      0.7143      0.7143    
   2    1.000       1.000       1.000       1.000      0.9501      0.8638      0.7919      0.7310      0.7143      0.7143    
   3    1.000       1.000       1.000       1.000      0.9258      0.8437      0.7749      0.7166      0.7143      0.7143    
   4    1.000       1.009       1.038       1.070      0.9596      0.8353      0.7587      0.7143      0.7143      0.7143    
   5    1.111       1.147       1.185       1.226       1.136      0.9661      0.8387      0.7321      0.7143      0.7143    
   6    1.281       1.328       1.380      0.6667      0.6667      0.6667      0.6667      0.8150      0.7143      0.7143    
   7    1.511       1.578       1.651      0.6667      0.6667      0.6667      0.6667      0.9190      0.7925      0.7143    
   8    1.667       1.667       1.667      0.6667      0.6667      0.6667      0.6667       1.054      0.8906      0.7713    
   9    1.667       1.667       1.667      0.6667      0.6667      0.6667      0.6667       1.234       1.016      0.8639    
  10    1.667       1.667       1.667      0.6667      0.6667      0.6667      0.6667       1.490       1.183      0.9817    

      VERTICAL HYD. COND. =   1.00000     FOR LAYER   1

    HYD. COND. ALONG ROWS FOR LAYER   2 WILL BE DEFINED BY PARAMETERS
 (PRINT FLAG=  12)

    HYD. COND. ALONG ROWS is defined by the following parameters:
 HK_Par1   
 HK_Par2   


              HYD. COND. ALONG ROWS FOR LAYER   2

            1           2           3           4           5           6           7           8           9          10
 ........................................................................................................................
   1    100.0       100.0       100.0       100.0       102.5       113.0       123.5       134.0       140.0       140.0    
   2    100.0       100.0       100.0       100.0       105.2       115.8       126.3       136.8       140.0       140.0    
   3    100.0       100.0       100.0       100.0       108.0       118.5       129.0       139.6       140.0       140.0    
   4    100.0       99.10       96.30       93.49       104.2       119.7       131.8       140.0       140.0       140.0    
   5    89.99       87.19       84.39       81.59       88.00       103.5       119.2       136.6       140.0       140.0    
   6    78.09       75.29       72.48       150.0       150.0       150.0       150.0       122.7       140.0       140.0    
   7    66.18       63.38       60.58       150.0       150.0       150.0       150.0       108.8       126.2       140.0    
   8    60.00       60.00       60.00       150.0       150.0       150.0       150.0       94.92       112.3       129.6    
   9    60.00       60.00       60.00       150.0       150.0       150.0       150.0       81.03       98.39       115.8    
  10    60.00       60.00       60.00       150.0       150.0       150.0       150.0       67.13       84.50       101.9    



             HORIZ. ANI. (COL./ROW) FOR LAYER   2
 READING ON UNIT   14 WITH FORMAT: (FREE)              

            1           2           3           4           5           6           7           8           9          10
 ........................................................................................................................
   1    1.000       1.000       1.000       1.000      0.9758      0.8850      0.8097      0.7461      0.7143      0.7143    
   2    1.000       1.000       1.000       1.000      0.9501      0.8638      0.7919      0.7310      0.7143      0.7143    
   3    1.000       1.000       1.000       1.000      0.9258      0.8437      0.7749      0.7166      0.7143      0.7143    
   4    1.000       1.009       1.038       1.070      0.9596      0.8353      0.7587      0.7143      0.7143      0.7143    
   5    1.111       1.147       1.185       1.226       1.136      0.9661      0.8387      0.7321      0.7143      0.7143    
   6    1.281       1.328       1.380      0.6667      0.6667      0.6667      0.6667      0.8150      0.7143      0.7143    
   7    1.511       1.578       1.651      0.6667      0.6667      0.6667      0.6667      0.9190      0.7925      0.7143    
   8    1.667       1.667       1.667      0.6667      0.6667      0.6667      0.6667       1.054      0.8906      0.7713    
   9    1.667       1.667       1.667      0.6667      0.6667      0.6667      0.6667       1.234       1.016      0.8639    
  10    1.667       1.667       1.667      0.6667      0.6667      0.6667      0.6667       1.490       1.183      0.9817    

      VERTICAL HYD. COND. =   1.00000     FOR LAYER   2

    HYD. COND. ALONG ROWS FOR LAYER   3 WILL BE DEFINED BY PARAMETERS
 (PRINT FLAG=  12)

    HYD. COND. ALONG ROWS is defined by the following parameters:
 HK_Par1   
 HK_Par2   


              HYD. COND. ALONG ROWS FOR LAYER   3

            1           2           3           4           5           6           7           8           9          10
 ........................................................................................................................
   1    100.0       100.0       100.0       100.0       102.5       113.0       123.5       134.0       140.0       140.0    
   2    100.0       100.0       100.0       100.0       105.2       115.8       126.3       136.8       140.0       140.0    
   3    100.0       100.0       100.0       100.0       108.0       118.5       129.0       139.6       140.0       140.0    
   4    100.0       99.10       96.30       93.49       104.2       119.7       131.8       140.0       140.0       140.0    
   5    89.99       87.19       84.39       81.59       88.00       103.5       119.2       136.6       140.0       140.0    
   6    78.09       75.29       72.48       150.0       150.0       150.0       150.0       122.7       140.0       140.0    
   7    66.18       63.38       60.58       150.0       150.0       150.0       150.0       108.8       126.2       140.0    
   8    60.00       60.00       60.00       150.0       150.0       150.0       150.0       94.92       112.3       129.6    
   9    60.00       60.00       60.00       150.0       150.0       150.0       150.0       81.03       98.39       115.8    
  10    60.00       60.00       60.00       150.0       150.0       150.0       150.0       67.13       84.50       101.9    



             HORIZ. ANI. (COL./ROW) FOR LAYER   3
 READING ON UNIT   14 WITH FORMAT: (FREE)              

            1           2           3           4           5           6           7           8           9          10
 ........................................................................................................................
   1    1.000       1.000       1.000       1.000      0.9758      0.8850      0.8097      0.7461      0.7143      0.7143    
   2    1.000       1.000       1.000       1.000      0.9501      0.8638      0.7919      0.7310      0.7143      0.7143    
   3    1.000       1.000       1.000       1.000      0.9258      0.8437      0.7749      0.7166      0.7143      0.7143    
   4    1.000       1.009       1.038       1.070      0.9596      0.8353      0.7587      0.7143      0.7143      0.7143    
   5    1.111       1.147       1.185       1.226       1.136      0.9661      0.8387      0.7321      0.7143      0.7143    
   6    1.281       1.328       1.380      0.6667      0.6667      0.6667      0.6667      0.8150      0.7143      0.7143    
   7    1.511       1.578       1.651      0.6667      0.6667      0.6667      0.6667      0.9190      0.7925      0.7143    
   8    1.667       1.667       1.667      0.6667      0.6667      0.6667      0.6667       1.054      0.8906      0.7713    
   9    1.667       1.667       1.667      0.6667      0.6667      0.6667      0.6667       1.234       1.016      0.8639    
  10    1.667       1.667       1.667      0.6667      0.6667      0.6667      0.6667       1.490       1.183      0.9817    

      VERTICAL HYD. COND. =   1.00000     FOR LAYER   3

    HYD. COND. ALONG ROWS FOR LAYER   4 WILL BE DEFINED BY PARAMETERS
 (PRINT FLAG=  12)

    HYD. COND. ALONG ROWS is defined by the following parameters:
 HK_Par1   
 HK_Par2   


              HYD. COND. ALONG ROWS FOR LAYER   4

            1           2           3           4           5           6           7           8           9          10
 ........................................................................................................................
   1    100.0       100.0       100.0       100.0       102.5       113.0       123.5       134.0       140.0       140.0    
   2    100.0       100.0       100.0       100.0       105.2       115.8       126.3       136.8       140.0       140.0    
   3    100.0       100.0       100.0       100.0       108.0       118.5       129.0       139.6       140.0       140.0    
   4    100.0       99.10       96.30       93.49       104.2       119.7       131.8       140.0       140.0       140.0    
   5    89.99       87.19       84.39       81.59       88.00       103.5       119.2       136.6       140.0       140.0    
   6    78.09       75.29       72.48       150.0       150.0       150.0       150.0       122.7       140.0       140.0    
   7    66.18       63.38       60.58       150.0       150.0       150.0       150.0       108.8       126.2       140.0    
   8    60.00       60.00       60.00       150.0       150.0       150.0       150.0       94.92       112.3       129.6    
   9    60.00       60.00       60.00       150.0       150.0       150.0       150.0       81.03       98.39       115.8    
  10    60.00       60.00       60.00       150.0       150.0       150.0       150.0       67.13       84.50       101.9    



             HORIZ. ANI. (COL./ROW) FOR LAYER   4
 READING ON UNIT   14 WITH FORMAT: (FREE)              

            1           2           3           4           5           6           7           8           9          10
 ........................................................................................................................
   1    1.000       1.000       1.000       1.000      0.9758      0.8850      0.8097      0.7461      0.7143      0.7143    
   2    1.000       1.000       1.000       1.000      0.9501      0.8638      0.7919      0.7310      0.7143      0.7143    
   3    1.000       1.000       1.000       1.000      0.9258      0.8437      0.7749      0.7166      0.7143      0.7143    
   4    1.000       1.009       1.038       1.070      0.9596      0.8353      0.7587      0.7143      0.7143      0.7143    
   5    1.111       1.147       1.185       1.226       1.136      0.9661      0.8387      0.7321      0.7143      0.7143    
   6    1.281       1.328       1.380      0.6667      0.6667      0.6667      0.6667      0.8150      0.7143      0.7143    
   7    1.511       1.578       1.651      0.6667      0.6667      0.6667      0.6667      0.9190      0.7925      0.7143    
   8    1.667       1.667       1.667      0.6667      0.6667      0.6667      0.6667       1.054      0.8906      0.7713    
   9    1.667       1.667       1.667      0.6667      0.6667      0.6667      0.6667       1.234       1.016      0.8639    
  10    1.667       1.667       1.667      0.6667      0.6667      0.6667      0.6667       1.490       1.183      0.9817    

      VERTICAL HYD. COND. =   1.00000     FOR LAYER   4

    HYD. COND. ALONG ROWS FOR LAYER   5 WILL BE DEFINED BY PARAMETERS
 (PRINT FLAG=  12)

    HYD. COND. ALONG ROWS is defined by the following parameters:
 HK_Par1   
 HK_Par2   


              HYD. COND. ALONG ROWS FOR LAYER   5

            1           2           3           4           5           6           7           8           9          10
 ........................................................................................................................
   1    100.0       100.0       100.0       100.0       102.5       113.0       123.5       134.0       140.0       140.0    
   2    100.0       100.0       100.0       100.0       105.2       115.8       126.3       136.8       140.0       140.0    
   3    100.0       100.0       100.0       100.0       108.0       118.5       129.0       139.6       140.0       140.0    
   4    100.0       99.10       96.30       93.49       104.2       119.7       131.8       140.0       140.0       140.0    
   5    89.99       87.19       84.39       81.59       88.00       103.5       119.2       136.6       140.0       140.0    
   6    78.09       75.29       72.48       150.0       71.78       150.0       150.0       122.7       140.0       140.0    
   7    66.18       63.38       60.58       60.00       150.0       150.0       150.0       108.8       126.2       140.0    
   8    60.00       60.00       60.00       150.0       150.0       150.0       150.0       94.92       112.3       129.6    
   9    60.00       60.00       60.00       150.0       150.0       150.0       150.0       81.03       98.39       115.8    
  10    60.00       60.00       60.00       150.0       150.0       150.0       150.0       67.13       84.50       101.9    



             HORIZ. ANI. (COL./ROW) FOR LAYER   5
 READING ON UNIT   14 WITH FORMAT: (FREE)              

            1           2           3           4           5           6           7           8           9          10
 ........................................................................................................................
   1    1.000       1.000       1.000       1.000      0.9758      0.8850      0.8097      0.7461      0.7143      0.7143    
   2    1.000       1.000       1.000       1.000      0.9501      0.8638      0.7919      0.7310      0.7143      0.7143    
   3    1.000       1.000       1.000       1.000      0.9258      0.8437      0.7749      0.7166      0.7143      0.7143    
   4    1.000       1.009       1.038       1.070      0.9596      0.8353      0.7587      0.7143      0.7143      0.7143    
   5    1.111       1.147       1.185       1.226       1.136      0.9661      0.8387      0.7321      0.7143      0.7143    
   6    1.281       1.328       1.380      0.6667       1.393      0.6667      0.6667      0.8150      0.7143      0.7143    
   7    1.511       1.578       1.651       1.667      0.6667      0.6667      0.6667      0.9190      0.7925      0.7143    
   8    1.667       1.667       1.667      0.6667      0.6667      0.6667      0.6667       1.054      0.8906      0.7713    
   9    1.667       1.667       1.667      0.6667      0.6667      0.6667      0.6667       1.234       1.016      0.8639    
  10    1.667       1.667       1.667      0.6667      0.6667      0.6667      0.6667       1.490       1.183      0.9817    

      VERTICAL HYD. COND. =   1.00000     FOR LAYER   5

    HYD. COND. ALONG ROWS FOR LAYER   6 WILL BE DEFINED BY PARAMETERS
 (PRINT FLAG=  12)

    HYD. COND. ALONG ROWS is defined by the following parameters:
 HK_Par1   
 HK_Par2   


              HYD. COND. ALONG ROWS FOR LAYER   6

            1           2           3           4           5           6           7           8           9          10
 ........................................................................................................................
   1    100.0       100.0       100.0       100.0       102.5       113.0       123.5       134.0       140.0       140.0    
   2    100.0       100.0       100.0       100.0       105.2       115.8       126.3       136.8       140.0       140.0    
   3    100.0       100.0       100.0       100.0       108.0       118.5       129.0       139.6       140.0       140.0    
   4    100.0       99.10       96.30       93.49       104.2       119.7       131.8       140.0       140.0       140.0    
   5    89.99       87.19       84.39       81.59       88.00       103.5       119.2       136.6       140.0       140.0    
   6    78.09       75.29       72.48       69.68       71.78       87.97       105.3       122.7       140.0       140.0    
   7    66.18       63.38       60.58       60.00       60.00       74.08       91.44       108.8       126.2       140.0    
   8    60.00       60.00       60.00       60.00       60.00       60.19       150.0       94.92       112.3       129.6    
   9    60.00       60.00       60.00       60.00       60.00       150.0       150.0       81.03       98.39       115.8    
  10    60.00       60.00       60.00       150.0       150.0       150.0       150.0       67.13       84.50       101.9    



             HORIZ. ANI. (COL./ROW) FOR LAYER   6
 READING ON UNIT   14 WITH FORMAT: (FREE)              

            1           2           3           4           5           6           7           8           9          10
 ........................................................................................................................
   1    1.000       1.000       1.000       1.000      0.9758      0.8850      0.8097      0.7461      0.7143      0.7143    
   2    1.000       1.000       1.000       1.000      0.9501      0.8638      0.7919      0.7310      0.7143      0.7143    
   3    1.000       1.000       1.000       1.000      0.9258      0.8437      0.7749      0.7166      0.7143      0.7143    
   4    1.000       1.009       1.038       1.070      0.9596      0.8353      0.7587      0.7143      0.7143      0.7143    
   5    1.111       1.147       1.185       1.226       1.136      0.9661      0.8387      0.7321      0.7143      0.7143    
   6    1.281       1.328       1.380       1.435       1.393       1.137      0.9493      0.8150      0.7143      0.7143    
   7    1.511       1.578       1.651       1.667       1.667       1.350       1.094      0.9190      0.7925      0.7143    
   8    1.667       1.667       1.667       1.667       1.667       1.662      0.6667       1.054      0.8906      0.7713    
   9    1.667       1.667       1.667       1.667       1.667      0.6667      0.6667       1.234       1.016      0.8639    
  10    1.667       1.667       1.667      0.6667      0.6667      0.6667      0.6667       1.490       1.183      0.9817    

      VERTICAL HYD. COND. =   1.00000     FOR LAYER   6

    HYD. COND. ALONG ROWS FOR LAYER   7 WILL BE DEFINED BY PARAMETERS
 (PRINT FLAG=  12)

    HYD. COND. ALONG ROWS is defined by the following parameters:
 HK_Par2   


              HYD. COND. ALONG ROWS FOR LAYER   7

            1           2           3           4           5           6           7           8           9          10
 ........................................................................................................................
   1    100.0       100.0       100.0       100.0       102.5       113.0       123.5       134.0       140.0       140.0    
   2    100.0       100.0       100.0       100.0       105.2       115.8       126.3       136.8       140.0       140.0    
   3    100.0       100.0       100.0       100.0       108.0       118.5       129.0       139.6       140.0       140.0    
   4    100.0       99.10       96.30       93.49       104.2       119.7       131.8       140.0       140.0       140.0    
   5    89.99       87.19       84.39       81.59       88.00       103.5       119.2       136.6       140.0       140.0    
   6    78.09       75.29       72.48       69.68       71.78       87.97       105.3       122.7       140.0       140.0    
   7    66.18       63.38       60.58       60.00       60.00       74.08       91.44       108.8       126.2       140.0    
   8    60.00       60.00       60.00       60.00       60.00       60.19       77.55       94.92       112.3       129.6    
   9    60.00       60.00       60.00       60.00       60.00       60.00       63.66       81.03       98.39       115.8    
  10    60.00       60.00       60.00       60.00       60.00       60.00       60.00       67.13       84.50       101.9    



             HORIZ. ANI. (COL./ROW) FOR LAYER   7
 READING ON UNIT   14 WITH FORMAT: (FREE)              

            1           2           3           4           5           6           7           8           9          10
 ........................................................................................................................
   1    1.000       1.000       1.000       1.000      0.9758      0.8850      0.8097      0.7461      0.7143      0.7143    
   2    1.000       1.000       1.000       1.000      0.9501      0.8638      0.7919      0.7310      0.7143      0.7143    
   3    1.000       1.000       1.000       1.000      0.9258      0.8437      0.7749      0.7166      0.7143      0.7143    
   4    1.000       1.009       1.038       1.070      0.9596      0.8353      0.7587      0.7143      0.7143      0.7143    
   5    1.111       1.147       1.185       1.226       1.136      0.9661      0.8387      0.7321      0.7143      0.7143    
   6    1.281       1.328       1.380       1.435       1.393       1.137      0.9493      0.8150      0.7143      0.7143    
   7    1.511       1.578       1.651       1.667       1.667       1.350       1.094      0.9190      0.7925      0.7143    
   8    1.667       1.667       1.667       1.667       1.667       1.662       1.289       1.054      0.8906      0.7713    
   9    1.667       1.667       1.667       1.667       1.667       1.667       1.571       1.234       1.016      0.8639    
  10    1.667       1.667       1.667       1.667       1.667       1.667       1.667       1.490       1.183      0.9817    

      VERTICAL HYD. COND. =   1.00000     FOR LAYER   7

    HYD. COND. ALONG ROWS FOR LAYER   8 WILL BE DEFINED BY PARAMETERS
 (PRINT FLAG=  12)

    HYD. COND. ALONG ROWS is defined by the following parameters:
 HK_Par2   


              HYD. COND. ALONG ROWS FOR LAYER   8

            1           2           3           4           5           6           7           8           9          10
 ........................................................................................................................
   1    100.0       100.0       100.0       100.0       102.5       113.0       123.5       134.0       140.0       140.0    
   2    100.0       100.0       100.0       100.0       105.2       115.8       126.3       136.8       140.0       140.0    
   3    100.0       100.0       100.0       100.0       108.0       118.5       129.0       139.6       140.0       140.0    
   4    100.0       99.10       96.30       93.49       104.2       119.7       131.8       140.0       140.0       140.0    
   5    89.99       87.19       84.39       81.59       88.00       103.5       119.2       136.6       140.0       140.0    
   6    78.09       75.29       72.48       69.68       71.78       87.97       105.3       122.7       140.0       140.0    
   7    66.18       63.38       60.58       60.00       60.00       74.08       91.44       108.8       126.2       140.0    
   8    60.00       60.00       60.00       60.00       60.00       60.19       77.55       94.92       112.3       129.6    
   9    60.00       60.00       60.00       60.00       60.00       60.00       63.66       81.03       98.39       115.8    
  10    60.00       60.00       60.00       60.00       60.00       60.00       60.00       67.13       84.50       101.9    



             HORIZ. ANI. (COL./ROW) FOR LAYER   8
 READING ON UNIT   14 WITH FORMAT: (FREE)              

            1           2           3           4           5           6           7           8           9          10
 ........................................................................................................................
   1    1.000       1.000       1.000       1.000      0.9758      0.8850      0.8097      0.7461      0.7143      0.7143    
   2    1.000       1.000       1.000       1.000      0.9501      0.8638      0.7919      0.7310      0.7143      0.7143    
   3    1.000       1.000       1.000       1.000      0.9258      0.8437      0.7749      0.7166      0.7143      0.7143    
   4    1.000       1.009       1.038       1.070      0.9596      0.8353      0.7587      0.7143      0.7143      0.7143    
   5    1.111       1.147       1.185       1.226       1.136      0.9661      0.8387      0.7321      0.7143      0.7143    
   6    1.281       1.328       1.380       1.435       1.393       1.137      0.9493      0.8150      0.7143      0.7143    
   7    1.511       1.578       1.651       1.667       1.667       1.350       1.094      0.9190      0.7925      0.7143    
   8    1.667       1.667       1.667       1.667       1.667       1.662       1.289       1.054      0.8906      0.7713    
   9    1.667       1.667       1.667       1.667       1.667       1.667       1.571       1.234       1.016      0.8639    
  10    1.667       1.667       1.667       1.667       1.667       1.667       1.667       1.490       1.183      0.9817    

      VERTICAL HYD. COND. =   1.00000     FOR LAYER   8

    HYD. COND. ALONG ROWS FOR LAYER   9 WILL BE DEFINED BY PARAMETERS
 (PRINT FLAG=  12)

    HYD. COND. ALONG ROWS is defined by the following parameters:
 HK_Par2   


              HYD. COND. ALONG ROWS FOR LAYER   9

            1           2           3           4           5           6           7           8           9          10
 ........................................................................................................................
   1    100.0       100.0       100.0       100.0       102.5       113.0       123.5       134.0       140.0       140.0    
   2    100.0       100.0       100.0       100.0       105.2       115.8       126.3       136.8       140.0       140.0    
   3    100.0       100.0       100.0       100.0       108.0       118.5       129.0       139.6       140.0       140.0    
   4    100.0       99.10       96.30       93.49       104.2       119.7       131.8       140.0       140.0       140.0    
   5    89.99       87.19       84.39       81.59       88.00       103.5       119.2       136.6       140.0       140.0    
   6    78.09       75.29       72.48       69.68       71.78       87.97       105.3       122.7       140.0       140.0    
   7    66.18       63.38       60.58       60.00       60.00       74.08       91.44       108.8       126.2       140.0    
   8    60.00       60.00       60.00       60.00       60.00       60.19       77.55       94.92       112.3       129.6    
   9    60.00       60.00       60.00       60.00       60.00       60.00       63.66       81.03       98.39       115.8    
  10    60.00       60.00       60.00       60.00       60.00       60.00       60.00       67.13       84.50       101.9    



             HORIZ. ANI. (COL./ROW) FOR LAYER   9
 READING ON UNIT   14 WITH FORMAT: (FREE)              

            1           2           3           4           5           6           7           8           9          10
 ........................................................................................................................
   1    1.000       1.000       1.000       1.000      0.9758      0.8850      0.8097      0.7461      0.7143      0.7143    
   2    1.000       1.000       1.000       1.000      0.9501      0.8638      0.7919      0.7310      0.7143      0.7143    
   3    1.000       1.000       1.000       1.000      0.9258      0.8437      0.7749      0.7166      0.7143      0.7143    
   4    1.000       1.009       1.038       1.070      0.9596      0.8353      0.7587      0.7143      0.7143      0.7143    
   5    1.111       1.147       1.185       1.226       1.136      0.9661      0.8387      0.7321      0.7143      0.7143    
   6    1.281       1.328       1.380       1.435       1.393       1.137      0.9493      0.8150      0.7143      0.7143    
   7    1.511       1.578       1.651       1.667       1.667       1.350       1.094      0.9190      0.7925      0.7143    
   8    1.667       1.667       1.667       1.667       1.667       1.662       1.289       1.054      0.8906      0.7713    
   9    1.667       1.667       1.667       1.667       1.667       1.667       1.571       1.234       1.016      0.8639    
  10    1.667       1.667       1.667       1.667       1.667       1.667       1.667       1.490       1.183      0.9817    

      VERTICAL HYD. COND. =   1.00000     FOR LAYER   9

 WEL -- WELL PACKAGE, VERSION 7, 5/2/2005 INPUT READ FROM UNIT   20
 # WEL: Well package file created on 2017-05-30 by ModelMuse version 3.9.0.0.
 No named parameters
 MAXIMUM OF      1 ACTIVE WELLS AT ONE TIME
 CELL-BY-CELL FLOWS WILL BE SAVED ON UNIT    9
 AUXILIARY WELL VARIABLE: IFACE           


     0 Well parameters

 CHD -- TIME-VARIANT SPECIFIED-HEAD OPTION, VERSION 7, 5/2/2005
 INPUT READ FROM UNIT   17
 # CHD: Time-Variant Specified-Head package file created on 2017-05-30 by ModelMuse version 3.9.0.0.
 # These comments will be printed at the beginning of the CHD input file.
          2 Named Parameters             10 List entries
 MAXIMUM OF     12 TIME-VARIANT SPECIFIED-HEAD CELLS AT ONE TIME
 AUXILIARY CHD VARIABLE: IFACE           


     2 TIME-VARIANT SPECIFIED-HEAD PARAMETERS

 PARAMETER NAME:CHD_Par1     TYPE:CHD 
 Parameter value from package file is:    30.000    
   NUMBER OF ENTRIES:      5

 CHD NO.   LAYER   ROW   COL   START FACTOR      END FACTOR         IFACE           
 -----------------------------------------------------------------------------------
      1      1      1     10      0.5000E-01      0.5000E-01       0.000    
      2      1      2     10      0.1500          0.1500           0.000    
      3      1      3     10      0.2500          0.2500           0.000    
      4      1      4     10      0.3500          0.3500           0.000    
      5      1      5     10      0.4500          0.4500           0.000    

 PARAMETER NAME:CHD_Par2     TYPE:CHD 
 Parameter value from package file is:    30.000    
   NUMBER OF ENTRIES:      5

 CHD NO.   LAYER   ROW   COL   START FACTOR      END FACTOR         IFACE           
 -----------------------------------------------------------------------------------
      1      1      1     10      0.9500          0.9500           0.000    
      2      1      2     10      0.8500          0.8500           0.000    
      3      1      3     10      0.7500          0.7500           0.000    
      4      1      4     10      0.6500          0.6500           0.000    
      5      1      5     10      0.5500          0.5500           0.000    

 PCG -- CONJUGATE-GRADIENT SOLUTION PACKAGE, VERSION 7, 5/2/2005
 # PCG: Preconditioned Conjugate Gradient package file created on 2017-05-30 by ModelMuse version 3.9.0.0.
 MAXIMUM OF     20 CALLS OF SOLUTION ROUTINE
 MAXIMUM OF     30 INTERNAL ITERATIONS PER CALL TO SOLUTION ROUTINE
 MATRIX PRECONDITIONING TYPE :    1



                                    SOLUTION BY THE CONJUGATE-GRADIENT METHOD
                                   -------------------------------------------
                    MAXIMUM NUMBER OF CALLS TO PCG ROUTINE =       20
                        MAXIMUM ITERATIONS PER CALL TO PCG =       30
                               MATRIX PRECONDITIONING TYPE =        1
        RELAXATION FACTOR (ONLY USED WITH PRECOND. TYPE 1) =    0.10000E+01
 PARAMETER OF POLYNOMIAL PRECOND. = 2 (2) OR IS CALCULATED :        1
                         HEAD CHANGE CRITERION FOR CLOSURE =    0.10000E-02
                     RESIDUAL CHANGE CRITERION FOR CLOSURE =    0.10000E+04
            PCG HEAD AND RESIDUAL CHANGE PRINTOUT INTERVAL =        1
     PRINTING FROM SOLVER IS LIMITED(1) OR SUPPRESSED (>1) =        0
                            STEADY-STATE DAMPING PARAMETER =    0.10000E+01
                               TRANSIENT DAMPING PARAMETER =    0.10000E+01
1
                            STRESS PERIOD NO.    1, LENGTH =   1.000000    
                            -----------------------------------------------

                              NUMBER OF TIME STEPS =     1

                               MULTIPLIER FOR DELT =     1.000

                            INITIAL TIME STEP SIZE =   1.000000    

 WELL NO.  LAYER   ROW   COL   STRESS RATE         IFACE           
 ------------------------------------------------------------------
      1      1      5      6      0.3000           0.000    

      1 WELL 

 CHD NO.   LAYER   ROW   COL    START HEAD        END HEAD         IFACE           
 ----------------------------------------------------------------------------------
      1      1      1      1       30.00           30.00           0.000    
      2      1     10     10       29.00           29.00           0.000    

 Parameter:  CHD_Par1
 CHD NO.   LAYER   ROW   COL    START HEAD        END HEAD         IFACE           
 ----------------------------------------------------------------------------------
      3      1      1     10       1.500           1.500           0.000    
      4      1      2     10       4.500           4.500           0.000    
      5      1      3     10       7.500           7.500           0.000    
      6      1      4     10       10.50           10.50           0.000    
      7      1      5     10       13.50           13.50           0.000    

 Parameter:  CHD_Par2
 CHD NO.   LAYER   ROW   COL    START HEAD        END HEAD         IFACE           
 ----------------------------------------------------------------------------------
      8      1      1     10       28.50           28.50           0.000    
      9      1      2     10       25.50           25.50           0.000    
     10      1      3     10       22.50           22.50           0.000    
     11      1      4     10       19.50           19.50           0.000    
     12      1      5     10       16.50           16.50           0.000    


     12 TIME-VARIANT SPECIFIED-HEAD CELLS
 
 SOLVING FOR HEAD 


     2 CALLS TO PCG ROUTINE FOR TIME STEP   1 IN STRESS PERIOD    1
    13 TOTAL ITERATIONS

 MAXIMUM HEAD CHANGE FOR EACH ITERATION (1 INDICATES THE FIRST INNER ITERATION):

    HEAD CHANGE    HEAD CHANGE    HEAD CHANGE    HEAD CHANGE    HEAD CHANGE 
   LAYER,ROW,COL  LAYER,ROW,COL  LAYER,ROW,COL  LAYER,ROW,COL  LAYER,ROW,COL
 ---------------------------------------------------------------------------
  1 -0.6784      0 -0.1990      0  0.2245      0 -0.9827E-01  0 -0.3776E-01
   (  2, 10,  9)  (  2, 10, 10)  (  9, 10,  1)  (  7, 10,  1)  (  2,  7,  8)
  0  0.3210E-01  0  0.1962E-01  0  0.8992E-02  0  0.5760E-02  0  0.3251E-02
   (  5, 10, 10)  (  2,  9,  5)  (  6, 10,  1)  (  3,  9,  9)  (  2, 10,  5)
  0 -0.1065E-02  0 -0.6092E-03  1 -0.2863E-03
   (  2, 10,  5)  (  6, 10,  8)  (  2,  5,  4)

 MAXIMUM RESIDUAL FOR EACH ITERATION (1 INDICATES THE FIRST INNER ITERATION):

    RESIDUAL       RESIDUAL       RESIDUAL       RESIDUAL       RESIDUAL    
   LAYER,ROW,COL  LAYER,ROW,COL  LAYER,ROW,COL  LAYER,ROW,COL  LAYER,ROW,COL
 ---------------------------------------------------------------------------
  1   2245.      0   1269.      0   730.9      0   409.6      0   224.9    
   (  2, 10, 10)  (  2, 10, 10)  (  2, 10, 10)  (  2, 10, 10)  (  2, 10, 10)
  0   105.7      0   62.33      0   44.36      0   18.80      0  -6.411    
   (  2, 10, 10)  (  2, 10, 10)  (  2, 10, 10)  (  2, 10, 10)  (  3, 10, 10)
  0  -4.138      0  -2.191      1  -1.822    
   (  3, 10, 10)  (  3, 10, 10)  (  3, 10, 10)



 OUTPUT CONTROL FOR STRESS PERIOD    1   TIME STEP    1
    SAVE HEAD FOR ALL LAYERS
    SAVE DRAWDOWN FOR ALL LAYERS
    SAVE BUDGET
    PRINT BUDGET
 UBDSV2 SAVING "   CONSTANT HEAD" ON UNIT   9 AT TIME STEP  1, STRESS PERIOD   1
 UBDSV1 SAVING "FLOW RIGHT FACE " ON UNIT   9 AT TIME STEP  1, STRESS PERIOD   1
 UBDSV1 SAVING "FLOW FRONT FACE " ON UNIT   9 AT TIME STEP  1, STRESS PERIOD   1
 UBDSV1 SAVING "FLOW LOWER FACE " ON UNIT   9 AT TIME STEP  1, STRESS PERIOD   1
 UBDSV4 SAVING "           WELLS" ON UNIT   9 AT TIME STEP  1, STRESS PERIOD   1

 HEAD WILL BE SAVED ON UNIT   37 AT END OF TIME STEP    1, STRESS PERIOD    1

 DRAWDOWN WILL BE SAVED ON UNIT   38 AT END OF TIME STEP    1, STRESS PERIOD    1
1
  VOLUMETRIC BUDGET FOR ENTIRE MODEL AT END OF TIME STEP    1, STRESS PERIOD   1
  ------------------------------------------------------------------------------

     CUMULATIVE VOLUMES      L**3       RATES FOR THIS TIME STEP      L**3/T
     ------------------                 ------------------------

           IN:                                      IN:
           ---                                      ---
             STORAGE =           0.0000               STORAGE =           0.0000
       CONSTANT HEAD =         930.3779         CONSTANT HEAD =         930.3779
               WELLS =           0.3000                 WELLS =           0.3000

            TOTAL IN =         930.6779              TOTAL IN =         930.6779

          OUT:                                     OUT:
          ----                                     ----
             STORAGE =           0.0000               STORAGE =           0.0000
       CONSTANT HEAD =         931.1648         CONSTANT HEAD =         931.1648
               WELLS =           0.0000                 WELLS =           0.0000

           TOTAL OUT =         931.1648             TOTAL OUT =         931.1648

            IN - OUT =          -0.4869              IN - OUT =          -0.4869

 PERCENT DISCREPANCY =          -0.05     PERCENT DISCREPANCY =          -0.05






         TIME SUMMARY AT END OF TIME STEP    1 IN STRESS PERIOD    1
                    SECONDS     MINUTES      HOURS       DAYS        YEARS
                    -----------------------------------------------------------
   TIME STEP LENGTH  1.0000     1.66667E-02 2.77778E-04 1.15741E-05 3.16881E-08
 STRESS PERIOD TIME  1.0000     1.66667E-02 2.77778E-04 1.15741E-05 3.16881E-08
         TOTAL TIME  1.0000     1.66667E-02 2.77778E-04 1.15741E-05 3.16881E-08
1

 Run end date and time (yyyy/mm/dd hh:mm:ss): 2017/05/30 17:28:16
 Elapsed run time:  0.019 Seconds

