                                  MODFLOW-2005     
      U.S. GEOLOGICAL SURVEY MODULAR FINITE-DIFFERENCE GROUND-WATER FLOW MODEL
                            VERSION 1.12.00 2/3/2017

 LIST FILE: rocky-mountain-arsenal.lst
                         UNIT   11

 OPENING rocky-mountain-arsenal.cbc
 FILE TYPE:DATA(BINARY)   UNIT    9   STATUS:REPLACE
 FORMAT:BINARY                 ACCESS:SEQUENTIAL          

 OPENING rocky-mountain-arsenal.dis
 FILE TYPE:DIS   UNIT   12   STATUS:OLD    
 FORMAT:FORMATTED              ACCESS:SEQUENTIAL          

 OPENING rocky-mountain-arsenal.bas
 FILE TYPE:BAS6   UNIT   13   STATUS:OLD    
 FORMAT:FORMATTED              ACCESS:SEQUENTIAL          

 OPENING rocky-mountain-arsenal.oc
 FILE TYPE:OC   UNIT   39   STATUS:OLD    
 FORMAT:FORMATTED              ACCESS:SEQUENTIAL          

 OPENING rocky-mountain-arsenal.fhd
 FILE TYPE:DATA   UNIT   37   STATUS:REPLACE
 FORMAT:FORMATTED              ACCESS:SEQUENTIAL          

 OPENING rocky-mountain-arsenal.fdn
 FILE TYPE:DATA   UNIT   38   STATUS:REPLACE
 FORMAT:FORMATTED              ACCESS:SEQUENTIAL          

 OPENING rocky-mountain-arsenal.pcg
 FILE TYPE:PCG   UNIT   18   STATUS:OLD    
 FORMAT:FORMATTED              ACCESS:SEQUENTIAL          

 OPENING rocky-mountain-arsenal.lpf
 FILE TYPE:LPF   UNIT   14   STATUS:OLD    
 FORMAT:FORMATTED              ACCESS:SEQUENTIAL          

 OPENING rocky-mountain-arsenal.lmt
 FILE TYPE:LMT6   UNIT  135   STATUS:OLD    
 FORMAT:FORMATTED              ACCESS:SEQUENTIAL          

 OPENING rocky-mountain-arsenal.ftl
 FILE TYPE:DATA(BINARY)   UNIT  136   STATUS:REPLACE
 FORMAT:BINARY                 ACCESS:SEQUENTIAL          

 OPENING rocky-mountain-arsenal.chd
 FILE TYPE:CHD   UNIT   17   STATUS:OLD    
 FORMAT:FORMATTED              ACCESS:SEQUENTIAL          

 OPENING rocky-mountain-arsenal.wel
 FILE TYPE:WEL   UNIT   20   STATUS:OLD    
 FORMAT:FORMATTED              ACCESS:SEQUENTIAL          

 BAS -- BASIC PACKAGE, VERSION 7, 5/2/2005 INPUT READ FROM UNIT   13
 
 MODFLOW was compiled using mixed precision
 Precision of REAL variables:           6
 Precision of DOUBLE PRECISION variables:          15

 DISCRETIZATION INPUT DATA READ FROM UNIT   12
 # Discretization File created on 2017-05-30 by ModelMuse version 3.9.0.0.
 # Upper left corner: (1696.20102745308, 8473.29309713687)
 # Lower left corner: (1696.20102745308, 3049.15053472316)
 # Upper right corner: (6289.17627630449, 8473.29309713687)
 # Lower right corner: (6289.17627630449, 3049.15053472316)
 # Grid angle (in degrees counterclockwise): 0
    1 LAYERS        54 ROWS        46 COLUMNS
    1 STRESS PERIOD(S) IN SIMULATION
 MODEL TIME UNIT IS SECONDS
 MODEL LENGTH UNIT IS METERS
  Confining bed flag for each layer:
   0



                               DELR
 READING ON UNIT   12 WITH FORMAT: (FREE)              
   99.847       99.847       99.847       99.847       99.847    
   99.847       99.847       99.847       99.847       99.847    
   99.847       99.847       99.847       99.847       99.847    
   99.847       99.847       99.847       99.847       99.847    
   99.847       99.847       99.847       99.847       99.847    
   99.847       99.847       99.847       99.847       99.847    
   99.847       99.847       99.847       99.847       99.847    
   99.847       99.847       99.847       99.847       99.847    
   99.847       99.847       99.847       99.847       99.847    
   99.847    



                               DELC
 READING ON UNIT   12 WITH FORMAT: (FREE)              
   100.45       100.45       100.45       100.45       100.45    
   100.45       100.45       100.45       100.45       100.45    
   100.45       100.45       100.45       100.45       100.45    
   100.45       100.45       100.45       100.45       100.45    
   100.45       100.45       100.45       100.45       100.45    
   100.45       100.45       100.45       100.45       100.45    
   100.45       100.45       100.45       100.45       100.45    
   100.45       100.45       100.45       100.45       100.45    
   100.45       100.45       100.45       100.45       100.45    
   100.45       100.45       100.45       100.45       100.45    
   100.45       100.45       100.45       100.45    



           TOP ELEVATION OF LAYER 1
 READING ON UNIT   12 WITH FORMAT: (FREE)              

            1           2           3           4           5           6           7           8           9          10
           11          12          13          14          15          16          17          18          19          20
           21          22          23          24          25          26          27          28          29          30
           31          32          33          34          35          36          37          38          39          40
           41          42          43          44          45          46
 ........................................................................................................................
   1    70.73       70.69       70.64       70.59       70.55       70.51       70.47       70.43       70.40       70.36    
        70.33       70.30       70.27       70.25       70.22       70.20       70.18       70.16       70.15       70.14    
        70.13       70.12       70.11       70.11       70.11       70.11       70.12       70.13       70.14       70.15    
        70.17       70.18       70.21       70.23       70.26       70.29       70.32       70.36       70.40       70.44    
        70.48       70.53       70.58       70.64       70.70       70.76    
   2    69.35       69.31       69.27       69.23       69.19       69.16       69.13       69.09       69.07       69.04    
        69.02       68.99       68.97       68.95       68.94       68.92       68.91       68.90       68.89       68.89    
        68.89       68.89       68.89       68.89       68.90       68.91       68.92       68.94       68.96       68.98    
        69.00       69.02       69.05       69.08       69.12       69.16       69.20       69.24       69.28       69.33    
        69.39       69.44       69.50       69.56       69.63       69.70    
   3    67.96       67.92       67.88       67.85       67.82       67.80       67.77       67.75       67.73       67.71    
        67.69       67.68       67.66       67.65       67.64       67.64       67.63       67.63       67.63       67.64    
        67.64       67.65       67.66       67.67       67.68       67.70       67.72       67.74       67.77       67.79    
        67.82       67.86       67.89       67.93       67.97       68.01       68.06       68.11       68.16       68.22    
        68.28       68.34       68.41       68.48       68.56       68.64    
   4    66.58       66.53       66.50       66.47       66.45       66.43       66.41       66.39       66.38       66.37    
        66.36       66.35       66.35       66.35       66.35       66.35       66.35       66.36       66.36       66.37    
        66.39       66.40       66.42       66.44       66.46       66.48       66.51       66.54       66.57       66.60    
        66.64       66.68       66.72       66.77       66.82       66.87       66.92       66.98       67.04       67.10    
        67.17       67.24       67.32       67.40       67.49       67.62    
   5    65.20       65.15       65.11       65.09       65.07       65.05       65.04       65.03       65.03       65.02    
        65.02       65.02       65.03       65.03       65.04       65.05       65.06       65.07       65.09       65.11    
        65.13       65.15       65.17       65.20       65.23       65.26       65.30       65.33       65.37       65.41    
        65.45       65.50       65.55       65.60       65.66       65.71       65.77       65.84       65.91       65.98    
        66.05       66.14       66.22       66.32       66.43       66.58    
   6    63.82       63.76       63.73       63.70       63.69       63.67       63.67       63.67       63.67       63.67    
        63.68       63.69       63.70       63.71       63.73       63.75       63.77       63.79       63.81       63.84    
        63.86       63.89       63.93       63.96       64.00       64.04       64.08       64.12       64.17       64.21    
        64.26       64.32       64.37       64.43       64.49       64.56       64.63       64.70       64.77       64.86    
        64.94       65.03       65.14       65.25       65.39       65.53    
   7    62.44       62.38       62.34       62.32       62.30       62.29       62.29       62.30       62.31       62.32    
        62.33       62.35       62.37       62.39       62.41       62.44       62.47       62.50       62.53       62.56    
        62.60       62.64       62.68       62.72       62.76       62.81       62.85       62.91       62.96       63.01    
        63.07       63.13       63.19       63.26       63.33       63.40       63.48       63.56       63.64       63.73    
        63.83       63.94       64.05       64.18       64.41       64.49    
   8    61.06       61.00       60.96       60.93       60.92       60.91       60.92       60.93       60.94       60.96    
        60.98       61.00       61.03       61.06       61.09       61.13       61.16       61.20       61.24       61.28    
        61.33       61.37       61.42       61.47       61.52       61.57       61.63       61.69       61.75       61.81    
        61.88       61.94       62.01       62.09       62.16       62.24       62.33       62.42       62.52       62.62    
        62.73       62.85       62.98       63.13       63.39       63.45    
   9    59.67       59.62       59.57       59.56       59.54       59.54       59.54       59.56       59.57       59.60    
        59.63       59.66       59.69       59.73       59.77       59.81       59.86       59.90       59.95       60.00    
        60.05       60.11       60.16       60.22       60.28       60.34       60.40       60.47       60.54       60.61    
        60.68       60.75       60.83       60.91       61.00       61.09       61.18       61.29       61.39       61.51    
        61.63       61.77       61.92       62.17       62.35       62.42    
  10    58.30       58.25       58.19       58.17       58.16       58.16       58.17       58.18       58.21       58.24    
        58.27       58.31       58.35       58.40       58.45       58.50       58.55       58.61       58.66       58.72    
        58.78       58.84       58.91       58.97       59.04       59.11       59.18       59.25       59.33       59.40    
        59.48       59.57       59.65       59.74       59.84       59.94       60.04       60.16       60.28       60.41    
        60.55       60.70       60.87       61.20       61.30       61.39    
  11    56.95       56.88       56.81       56.79       56.79       56.78       56.79       56.81       56.84       56.88    
        56.92       56.97       57.01       57.07       57.12       57.18       57.24       57.31       57.37       57.44    
        57.51       57.58       57.65       57.72       57.80       57.87       57.95       58.03       58.11       58.20    
        58.29       58.38       58.48       58.58       58.68       58.79       58.91       59.04       59.17       59.31    
        59.47       59.64       59.89       60.19       60.25       60.36    
  12    55.61       55.51       55.44       55.40       55.41       55.42       55.42       55.45       55.48       55.52    
        55.57       55.62       55.68       55.74       55.80       55.87       55.94       56.01       56.08       56.15    
        56.23       56.31       56.39       56.47       56.55       56.64       56.73       56.81       56.91       57.00    
        57.10       57.20       57.31       57.42       57.53       57.65       57.78       57.92       58.07       58.23    
        58.41       58.59       58.95       59.16       59.21       59.34    
  13    54.29       54.14       54.07       54.02       54.03       54.05       54.06       54.08       54.12       54.16    
        54.21       54.27       54.34       54.40       54.48       54.55       54.63       54.71       54.79       54.87    
        54.96       55.04       55.13       55.22       55.31       55.41       55.50       55.60       55.70       55.80    
        55.91       56.02       56.14       56.26       56.39       56.52       56.67       56.82       56.98       57.16    
        57.35       57.59       57.99       58.12       58.18       58.32    
  14    52.97       52.78       52.71       52.64       52.64       52.68       52.70       52.72       52.76       52.81    
        52.87       52.93       53.00       53.07       53.15       53.24       53.32       53.41       53.50       53.59    
        53.69       53.78       53.88       53.98       54.08       54.18       54.28       54.39       54.50       54.61    
        54.73       54.85       54.98       55.11       55.25       55.40       55.56       55.73       55.91       56.10    
        56.31       56.65       56.99       57.08       57.15       57.30    
  15    51.67       51.41       51.35       51.28       51.25       51.29       51.35       51.37       51.41       51.46    
        51.52       51.59       51.67       51.75       51.83       51.92       52.02       52.11       52.21       52.31    
        52.42       52.52       52.63       52.73       52.84       52.95       53.07       53.18       53.30       53.43    
        53.55       53.69       53.83       53.97       54.13       54.29       54.46       54.65       54.84       55.05    
        55.29       55.72       55.97       56.04       56.14       56.29    
  16    50.37       50.04       50.00       49.92       49.87       49.91       49.98       50.02       50.06       50.11    
        50.18       50.25       50.33       50.42       50.52       50.62       50.72       50.82       50.93       51.04    
        51.15       51.26       51.38       51.49       51.61       51.73       51.86       51.98       52.11       52.25    
        52.39       52.53       52.68       52.84       53.01       53.19       53.37       53.58       53.79       54.01    
        54.35       54.77       54.95       55.00       55.14       55.28    
  17    49.07       48.67       48.64       48.56       48.50       48.52       48.60       48.69       48.72       48.77    
        48.84       48.92       49.01       49.10       49.20       49.31       49.42       49.53       49.65       49.77    
        49.89       50.01       50.13       50.26       50.39       50.52       50.65       50.79       50.93       51.08    
        51.23       51.38       51.55       51.72       51.90       52.09       52.30       52.52       52.75       52.99    
        53.43       53.79       53.91       53.97       54.14       54.29    
  18    47.79       47.30       47.29       47.22       47.14       47.14       47.21       47.33       47.39       47.44    
        47.51       47.59       47.69       47.79       47.90       48.01       48.13       48.25       48.37       48.50    
        48.63       48.76       48.90       49.03       49.17       49.31       49.45       49.60       49.75       49.91    
        50.07       50.24       50.42       50.61       50.81       51.01       51.24       51.47       51.71       52.03    
        52.50       52.78       52.88       52.94       53.15       53.30    
  19    46.51       45.94       45.95       45.87       45.79       45.77       45.83       45.95       46.07       46.12    
        46.19       46.27       46.37       46.48       46.59       46.71       46.84       46.97       47.10       47.24    
        47.38       47.52       47.66       47.81       47.96       48.11       48.26       48.42       48.59       48.76    
        48.93       49.12       49.31       49.51       49.72       49.95       50.18       50.43       50.69       51.11    
        51.55       51.77       51.85       51.92       52.16       52.32    
  20    45.23       44.58       44.60       44.54       44.45       44.41       44.44       44.57       44.73       44.80    
        44.87       44.96       45.06       45.18       45.30       45.42       45.56       45.70       45.84       45.98    
        46.13       46.28       46.44       46.59       46.75       46.92       47.08       47.25       47.43       47.61    
        47.80       48.00       48.20       48.42       48.65       48.89       49.14       49.41       49.72       50.20    
        50.58       50.75       50.82       50.92       51.17       51.35    
  21    43.96       43.25       43.26       43.20       43.12       43.06       43.07       43.18       43.36       43.50    
        43.57       43.66       43.76       43.88       44.01       44.14       44.28       44.43       44.58       44.74    
        44.89       45.06       45.22       45.39       45.56       45.73       45.91       46.09       46.28       46.48    
        46.68       46.89       47.11       47.34       47.59       47.85       48.11       48.39       48.79       49.28    
        49.59       49.72       49.79       49.93       50.19       50.40    
  22    42.69       41.94       41.92       41.87       41.79       41.72       41.71       41.80       41.98       42.18    
        42.28       42.36       42.47       42.59       42.72       42.87       43.02       43.17       43.33       43.50    
        43.66       43.83       44.01       44.19       44.37       44.55       44.74       44.94       45.14       45.35    
        45.57       45.80       46.03       46.28       46.54       46.81       47.09       47.41       47.88       48.34    
        48.58       48.70       48.77       48.96       49.22       49.48    
  23    41.43       40.65       40.58       40.55       40.47       40.39       40.36       40.43       40.59       40.83    
        41.00       41.08       41.19       41.31       41.45       41.60       41.76       41.92       42.09       42.26    
        42.44       42.62       42.81       43.00       43.19       43.39       43.59       43.80       44.01       44.24    
        44.47       44.71       44.96       45.23       45.50       45.79       46.09       46.47       46.97       47.37    
        47.57       47.68       47.76       47.99       48.25       48.58    
  24    40.17       39.38       39.24       39.23       39.15       39.07       39.03       39.06       39.21       39.45    
        39.70       39.81       39.91       40.04       40.18       40.34       40.50       40.68       40.85       41.04    
        41.23       41.42       41.62       41.82       42.02       42.23       42.45       42.67       42.90       43.13    
        43.38       43.64       43.91       44.19       44.48       44.78       45.10       45.56       46.05       46.39    
        46.56       46.66       46.76       47.04       47.30       47.69    
  25    38.92       38.12       37.91       37.91       37.84       37.76       37.71       37.72       37.84       38.07    
        38.36       38.55       38.65       38.78       38.93       39.09       39.26       39.44       39.63       39.82    
        40.02       40.22       40.43       40.64       40.86       41.08       41.31       41.55       41.79       42.04    
        42.31       42.58       42.86       43.16       43.46       43.78       44.16       44.65       45.11       45.40    
        45.55       45.65       45.77       46.09       46.35       46.82    
  26    37.67       36.87       36.58       36.60       36.54       36.46       36.40       36.39       36.48       36.69    
        36.99       37.28       37.41       37.54       37.69       37.85       38.03       38.22       38.41       38.62    
        38.83       39.04       39.26       39.48       39.71       39.95       40.19       40.44       40.70       40.97    
        41.24       41.53       41.83       42.14       42.46       42.79       43.24       43.74       44.16       44.40    
        44.54       44.65       44.80       45.15       45.41       45.96    
  27    36.42       35.63       35.25       35.29       35.24       35.17       35.10       35.08       35.14       35.32    
        35.62       35.96       36.18       36.30       36.45       36.62       36.81       37.00       37.21       37.42    
        37.64       37.87       38.10       38.33       38.58       38.83       39.08       39.34       39.62       39.90    
        40.19       40.50       40.81       41.14       41.47       41.84       42.33       42.82       43.19       43.40    
        43.54       43.65       43.84       44.22       44.48       45.11    
  28    35.18       34.39       33.93       33.99       33.96       33.88       33.82       33.78       33.82       33.97    
        34.25       34.61       34.94       35.09       35.24       35.41       35.60       35.80       36.01       36.24    
        36.47       36.70       36.95       37.20       37.45       37.71       37.98       38.26       38.55       38.85    
        39.15       39.47       39.80       40.14       40.49       40.92       41.42       41.89       42.21       42.40    
        42.54       42.66       42.90       43.29       43.56       44.28    
  29    33.93       33.17       32.62       32.70       32.67       32.61       32.54       32.50       32.52       32.63    
        32.89       33.25       33.64       33.89       34.03       34.21       34.40       34.61       34.83       35.06    
        35.30       35.55       35.81       36.07       36.34       36.61       36.90       37.19       37.49       37.80    
        38.13       38.46       38.81       39.16       39.54       40.01       40.51       40.95       41.22       41.41    
        41.55       41.69       41.98       42.38       42.65       43.45    
  30    32.70       31.94       31.31       31.41       31.40       31.34       31.28       31.23       31.24       31.32    
        31.54       31.89       32.32       32.68       32.85       33.02       33.22       33.43       33.66       33.90    
        34.15       34.41       34.68       34.95       35.24       35.53       35.82       36.13       36.45       36.78    
        37.11       37.46       37.82       38.19       38.61       39.11       39.60       39.99       40.24       40.42    
        40.56       40.73       41.07       41.47       41.76       42.63    
  31    31.46       30.73       30.03       30.13       30.13       30.09       30.02       29.98       29.97       30.03    
        30.21       30.54       30.98       31.41       31.68       31.85       32.05       32.27       32.50       32.76    
        33.02       33.29       33.57       33.85       34.15       34.45       34.76       35.09       35.42       35.76    
        36.11       36.48       36.85       37.23       37.70       38.20       38.67       39.02       39.25       39.43    
        39.59       39.79       40.17       40.57       40.87       41.81    
  32    30.23       29.51       28.79       28.85       28.88       28.84       28.78       28.74       28.72       28.77    
        28.91       29.21       29.63       30.11       30.51       30.70       30.89       31.12       31.36       31.62    
        31.89       32.17       32.46       32.76       33.07       33.39       33.72       34.05       34.40       34.76    
        35.13       35.50       35.89       36.31       36.79       37.29       37.73       38.05       38.27       38.46    
        38.63       38.86       39.28       39.68       40.00       41.01    
  33    29.00       28.31       27.56       27.59       27.63       27.60       27.55       27.51       27.49       27.52    
        27.64       27.90       28.30       28.80       29.28       29.56       29.76       29.98       30.23       30.50    
        30.78       31.07       31.38       31.69       32.01       32.34       32.68       33.04       33.40       33.77    
        34.15       34.54       34.94       35.39       35.88       36.37       36.79       37.07       37.30       37.49    
        37.68       37.95       38.40       38.81       39.14       40.21    
  34    27.77       27.10       26.36       26.33       26.39       26.38       26.34       26.30       26.28       26.30    
        26.40       26.61       26.99       27.48       28.01       28.44       28.64       28.87       29.12       29.40    
        29.69       29.99       30.30       30.63       30.97       31.31       31.67       32.03       32.41       32.79    
        33.19       33.59       34.01       34.48       34.97       35.45       35.83       36.10       36.33       36.53    
        36.75       37.05       37.53       37.94       38.30       39.41    
  35    26.55       25.90       25.17       25.08       25.16       25.16       25.13       25.10       25.08       25.10    
        25.18       25.36       25.70       26.18       26.72       27.24       27.55       27.77       28.03       28.31    
        28.61       28.92       29.25       29.58       29.93       30.29       30.66       31.04       31.43       31.83    
        32.24       32.65       33.09       33.57       34.06       34.52       34.87       35.14       35.37       35.59    
        35.83       36.18       36.67       37.09       37.46       38.63    
  36    25.32       24.71       23.99       23.84       23.94       23.96       23.94       23.92       23.90       23.92    
        23.99       24.14       24.44       24.89       25.44       26.01       26.47       26.70       26.95       27.24    
        27.54       27.87       28.20       28.55       28.92       29.29       29.67       30.07       30.47       30.88    
        31.30       31.73       32.19       32.67       33.15       33.59       33.91       34.18       34.42       34.66    
        34.93       35.32       35.83       36.26       36.64       37.84    
  37    24.10       23.51       22.83       22.62       22.74       22.77       22.77       22.75       22.74       22.76    
        22.82       22.95       23.21       23.63       24.17       24.76       25.31       25.64       25.90       26.18    
        26.50       26.83       27.18       27.54       27.91       28.30       28.70       29.11       29.52       29.95    
        30.38       30.81       31.28       31.76       32.24       32.64       32.96       33.23       33.49       33.75    
        34.05       34.48       34.99       35.43       35.84       37.07    
  38    22.88       22.33       21.67       21.41       21.55       21.60       21.61       21.60       21.60       21.62    
        21.68       21.80       22.02       22.41       22.93       23.52       24.12       24.61       24.87       25.15    
        25.47       25.81       26.17       26.54       26.93       27.33       27.74       28.16       28.59       29.03    
        29.46       29.91       30.37       30.85       31.32       31.70       32.01       32.29       32.57       32.86    
        33.18       33.66       34.17       34.62       35.05       36.30    
  39    21.67       21.14       20.53       20.21       20.37       20.44       20.46       20.47       20.48       20.51    
        20.57       20.68       20.87       21.22       21.71       22.30       22.93       23.51       23.86       24.14    
        24.46       24.81       25.18       25.56       25.96       26.38       26.80       27.23       27.67       28.12    
        28.55       29.00       29.47       29.94       30.40       30.76       31.07       31.37       31.67       31.98    
        32.34       32.84       33.36       33.82       34.29       35.53    
  40    20.45       19.96       19.39       19.02       19.21       19.30       19.34       19.36       19.38       19.41    
        19.48       19.59       19.77       20.07       20.54       21.11       21.74       22.37       22.87       23.16    
        23.48       23.83       24.21       24.60       25.01       25.44       25.87       26.32       26.77       27.22    
        27.65       28.10       28.57       29.04       29.47       29.82       30.15       30.46       30.79       31.12    
        31.52       32.04       32.56       33.04       33.55       34.77    
  41    19.24       18.79       18.26       17.87       18.07       18.18       18.23       18.27       18.30       18.35    
        18.42       18.53       18.70       18.96       19.40       19.95       20.57       21.22       21.82       22.20    
        22.52       22.87       23.26       23.66       24.09       24.52       24.97       25.42       25.88       26.32    
        26.76       27.20       27.67       28.14       28.55       28.90       29.24       29.58       29.92       30.29    
        30.71       31.26       31.79       32.28       32.82       34.01    
  42    18.03       17.62       17.14       16.76       16.94       17.07       17.15       17.20       17.25       17.30    
        17.39       17.50       17.67       17.91       18.31       18.84       19.45       20.10       20.74       21.27    
        21.58       21.94       22.33       22.74       23.18       23.62       24.08       24.54       25.00       25.43    
        25.86       26.31       26.77       27.24       27.63       27.99       28.35       28.71       29.08       29.47    
        29.93       30.49       31.02       31.53       32.11       33.25    
  43    16.82       16.45       16.03       15.68       15.84       15.99       16.08       16.15       16.22       16.29    
        16.38       16.51       16.68       16.91       17.26       17.77       18.36       19.00       19.66       20.28    
        20.68       21.03       21.42       21.85       22.29       22.74       23.21       23.68       24.13       24.55    
        24.97       25.42       25.88       26.34       26.72       27.10       27.48       27.86       28.26       28.68    
        29.17       29.73       30.27       30.80       31.41       32.50    
  44    15.61       15.30       14.93       14.62       14.76       14.93       15.04       15.13       15.21       15.30    
        15.41       15.55       15.72       15.95       16.27       16.75       17.33       17.95       18.61       19.26    
        19.80       20.15       20.54       20.97       21.42       21.89       22.36       22.83       23.26       23.67    
        24.09       24.54       25.01       25.44       25.84       26.23       26.63       27.04       27.46       27.91    
        28.43       28.99       29.54       30.08       30.72       31.75    
  45    14.41       14.14       13.84       13.58       13.70       13.89       14.02       14.14       14.24       14.35    
        14.47       14.62       14.81       15.04       15.34       15.79       16.35       16.96       17.60       18.26    
        18.88       19.30       19.69       20.12       20.58       21.05       21.53       21.99       22.40       22.80    
        23.23       23.67       24.15       24.57       24.97       25.38       25.80       26.24       26.69       27.17    
        27.71       28.27       28.83       29.38       30.04       31.01    
  46    13.20       13.00       12.76       12.56       12.66       12.88       13.04       13.17       13.30       13.43    
        13.57       13.74       13.94       14.18       14.47       14.89       15.43       16.02       16.65       17.30    
        17.94       18.48       18.87       19.30       19.77       20.24       20.72       21.15       21.55       21.95    
        22.37       22.83       23.29       23.71       24.13       24.57       25.01       25.47       25.94       26.44    
        27.00       27.57       28.14       28.69       29.36       30.27    
  47    12.00       11.86       11.70       11.56       11.66       11.90       12.08       12.24       12.39       12.54    
        12.70       12.89       13.11       13.36       13.66       14.05       14.57       15.15       15.76       16.39    
        17.03       17.63       18.08       18.51       18.98       19.46       19.92       20.32       20.72       21.12    
        21.55       22.00       22.46       22.89       23.33       23.78       24.24       24.72       25.22       25.75    
        26.32       26.89       27.46       28.03       28.70       29.53    
  48    10.80       10.73       10.65       10.58       10.68       10.94       11.15       11.34       11.51       11.69    
        11.88       12.09       12.32       12.59       12.91       13.29       13.79       14.35       14.94       15.55    
        16.17       16.78       17.33       17.75       18.22       18.70       19.13       19.52       19.92       20.32    
        20.75       21.21       21.66       22.10       22.56       23.03       23.51       24.01       24.53       25.08    
        25.65       26.23       26.81       27.37       28.03       28.80    
  49    9.608       9.607       9.608       9.624       9.738       10.03       10.26       10.47       10.68       10.88    
        11.10       11.33       11.59       11.88       12.21       12.60       13.08       13.62       14.20       14.79    
        15.39       15.99       16.56       17.03       17.50       17.96       18.36       18.76       19.15       19.56    
        19.99       20.45       20.90       21.36       21.83       22.32       22.81       23.33       23.87       24.43    
        25.01       25.59       26.17       26.74       27.38       28.07    
  50    8.415       8.497       8.585       8.685       8.830       9.145       9.408       9.651       9.885       10.12    
        10.36       10.62       10.90       11.22       11.57       11.98       12.44       12.98       13.54       14.11    
        14.69       15.27       15.83       16.35       16.80       17.24       17.64       18.04       18.44       18.84    
        19.28       19.73       20.20       20.67       21.15       21.65       22.16       22.69       23.24       23.81    
        24.39       24.97       25.56       26.12       26.72       27.35    
  51    7.227       7.399       7.579       7.765       7.967       8.303       8.598       8.873       9.139       9.403    
        9.675       9.963       10.27       10.61       10.99       11.42       11.90       12.42       12.96       13.52    
        14.08       14.63       15.17       15.68       16.15       16.58       16.99       17.41       17.86       18.33    
        18.81       19.30       19.79       20.28       20.79       21.29       21.80       22.32       22.84       23.37    
        23.90       24.42       24.96       25.52       26.08       26.63    
  52    6.045       6.314       6.588       6.867       7.148       7.503       7.833       8.143       8.444       8.742    
        9.046       9.372       9.835       10.37       10.93       11.48       12.00       12.48       12.91       13.35    
        13.80       14.25       14.70       15.16       15.63       16.10       16.57       17.04       17.51       17.99    
        18.46       18.94       19.42       19.90       20.38       20.87       21.35       21.84       22.33       22.83    
        23.33       23.83       24.34       24.85       25.36       25.88    
  53    4.872       5.241       5.614       5.988       6.364       6.752       7.119       7.498       7.983       8.434    
        8.859       9.290       9.725       10.16       10.60       11.04       11.47       11.91       12.34       12.78    
        13.22       13.66       14.11       14.56       15.00       15.46       15.91       16.37       16.82       17.29    
        17.75       18.22       18.69       19.16       19.64       20.12       20.60       21.09       21.58       22.07    
        22.57       23.07       23.58       24.09       24.60       25.12    
  54    3.708       4.179       4.651       5.126       5.601       6.041       6.463       6.886       7.310       7.735    
        8.160       8.587       9.014       9.443       9.872       10.30       10.74       11.17       11.61       12.04    
        12.48       12.92       13.37       13.81       14.26       14.71       15.16       15.62       16.08       16.54    
        17.00       17.47       17.94       18.41       18.88       19.36       19.84       20.33       20.82       21.31    
        21.81       22.31       22.81       23.32       23.84       24.35    



             MODEL LAYER BOTTOM EL. FOR LAYER   1
 READING ON UNIT   12 WITH FORMAT: (FREE)              

            1           2           3           4           5           6           7           8           9          10
           11          12          13          14          15          16          17          18          19          20
           21          22          23          24          25          26          27          28          29          30
           31          32          33          34          35          36          37          38          39          40
           41          42          43          44          45          46
 ........................................................................................................................
   1    58.73       58.69       58.64       58.59       58.55       58.51       58.47       58.43       58.40       58.36    
        58.33       58.30       58.27       58.25       58.22       58.20       58.18       58.16       58.15       58.14    
        58.13       58.12       58.11       58.11       58.11       58.11       58.12       58.13       58.14       58.15    
        58.17       58.18       58.21       58.23       58.26       58.29       58.32       58.36       58.40       58.44    
        58.48       58.53       58.58       58.64       58.70       58.76    
   2    57.35       57.31       57.27       57.23       57.19       57.16       57.13       57.09       57.07       57.04    
        57.02       56.99       56.97       56.95       56.94       56.92       56.91       56.90       56.89       56.89    
        56.89       56.89       56.89       56.89       56.90       56.91       56.92       56.94       56.96       56.98    
        57.00       57.02       57.05       57.08       57.12       57.16       57.20       57.24       57.28       57.33    
        57.39       57.44       57.50       57.56       57.63       57.70    
   3    55.96       55.92       55.88       55.85       55.82       55.80       55.77       55.75       55.73       55.71    
        55.69       55.68       55.66       55.65       55.64       55.64       55.63       55.63       55.63       55.64    
        55.64       55.65       55.66       55.67       55.68       55.70       55.72       55.74       55.77       55.79    
        55.82       55.86       55.89       55.93       55.97       56.01       56.06       56.11       56.16       56.22    
        56.28       56.34       56.41       56.48       56.56       56.64    
   4    54.58       54.53       54.50       54.47       54.45       54.43       54.41       54.39       54.38       54.37    
        54.36       54.35       54.35       54.35       54.35       54.35       54.35       54.36       54.36       54.37    
        54.39       54.40       54.42       54.44       54.46       54.48       54.51       54.54       54.57       54.60    
        54.64       54.68       54.72       54.77       54.82       54.87       54.92       54.98       55.04       55.10    
        55.17       55.24       55.32       55.40       55.49       55.62    
   5    53.20       53.15       53.11       53.09       53.07       53.05       53.04       53.03       53.03       53.02    
        53.02       53.02       53.03       53.03       53.04       53.05       53.06       53.07       53.09       53.11    
        53.13       53.15       53.17       53.20       53.23       53.26       53.30       53.33       53.37       53.41    
        53.45       53.50       53.55       53.60       53.66       53.71       53.77       53.84       53.91       53.98    
        54.05       54.14       54.22       54.32       54.43       54.58    
   6    51.82       51.76       51.73       51.70       51.69       51.67       51.67       51.67       51.67       51.67    
        51.68       51.69       51.70       51.71       51.73       51.75       51.77       51.79       51.81       51.84    
        51.86       51.89       51.93       51.96       52.00       52.04       52.08       52.12       52.17       52.21    
        52.26       52.32       52.37       52.43       52.49       52.56       52.63       52.70       52.77       52.86    
        52.94       53.03       53.14       53.25       53.39       53.53    
   7    50.44       50.38       50.34       50.32       50.30       50.29       50.29       50.30       50.31       50.32    
        50.33       50.35       50.37       50.39       50.41       50.44       50.47       50.50       50.53       50.56    
        50.60       50.64       50.68       50.72       50.76       50.81       50.85       50.91       50.96       51.01    
        51.07       51.13       51.19       51.26       51.33       51.40       51.48       51.56       51.64       51.73    
        51.83       51.94       52.05       52.18       52.41       52.49    
   8    49.06       49.00       48.96       48.93       48.92       48.91       48.92       48.93       48.94       48.96    
        48.98       49.00       49.03       49.06       49.09       49.13       49.16       49.20       49.24       49.28    
        49.33       49.37       49.42       49.47       49.52       49.57       49.63       49.69       49.75       49.81    
        49.88       49.94       50.01       50.09       50.16       50.24       50.33       50.42       50.52       50.62    
        50.73       50.85       50.98       51.13       51.39       51.45    
   9    47.67       47.62       47.57       47.56       47.54       47.54       47.54       47.56       47.57       47.60    
        47.63       47.66       47.69       47.73       47.77       47.81       47.86       47.90       47.95       48.00    
        48.05       48.11       48.16       48.22       48.28       48.34       48.40       48.47       48.54       48.61    
        48.68       48.75       48.83       48.91       49.00       49.09       49.18       49.29       49.39       49.51    
        49.63       49.77       49.92       50.17       50.35       50.42    
  10    46.30       46.25       46.19       46.17       46.16       46.16       46.17       46.18       46.21       46.24    
        46.27       46.31       46.35       46.40       46.45       46.50       46.55       46.61       46.66       46.72    
        46.78       46.84       46.91       46.97       47.04       47.11       47.18       47.25       47.33       47.40    
        47.48       47.57       47.65       47.74       47.84       47.94       48.04       48.16       48.28       48.41    
        48.55       48.70       48.87       49.20       49.30       49.39    
  11    44.95       44.88       44.81       44.79       44.79       44.78       44.79       44.81       44.84       44.88    
        44.92       44.97       45.01       45.07       45.12       45.18       45.24       45.31       45.37       45.44    
        45.51       45.58       45.65       45.72       45.80       45.87       45.95       46.03       46.11       46.20    
        46.29       46.38       46.48       46.58       46.68       46.79       46.91       47.04       47.17       47.31    
        47.47       47.64       47.89       48.19       48.25       48.36    
  12    43.61       43.51       43.44       43.40       43.41       43.42       43.42       43.45       43.48       43.52    
        43.57       43.62       43.68       43.74       43.80       43.87       43.94       44.01       44.08       44.15    
        44.23       44.31       44.39       44.47       44.55       44.64       44.73       44.81       44.91       45.00    
        45.10       45.20       45.31       45.42       45.53       45.65       45.78       45.92       46.07       46.23    
        46.41       46.59       46.95       47.16       47.21       47.34    
  13    42.29       42.14       42.07       42.02       42.03       42.05       42.06       42.08       42.12       42.16    
        42.21       42.27       42.34       42.40       42.48       42.55       42.63       42.71       42.79       42.87    
        42.96       43.04       43.13       43.22       43.31       43.41       43.50       43.60       43.70       43.80    
        43.91       44.02       44.14       44.26       44.39       44.52       44.67       44.82       44.98       45.16    
        45.35       45.59       45.99       46.12       46.18       46.32    
  14    40.97       40.78       40.71       40.64       40.64       40.68       40.70       40.72       40.76       40.81    
        40.87       40.93       41.00       41.07       41.15       41.24       41.32       41.41       41.50       41.59    
        41.69       41.78       41.88       41.98       42.08       42.18       42.28       42.39       42.50       42.61    
        42.73       42.85       42.98       43.11       43.25       43.40       43.56       43.73       43.91       44.10    
        44.31       44.65       44.99       45.08       45.15       45.30    
  15    39.67       39.41       39.35       39.28       39.25       39.29       39.35       39.37       39.41       39.46    
        39.52       39.59       39.67       39.75       39.83       39.92       40.02       40.11       40.21       40.31    
        40.42       40.52       40.63       40.73       40.84       40.95       41.07       41.18       41.30       41.43    
        41.55       41.69       41.83       41.97       42.13       42.29       42.46       42.65       42.84       43.05    
        43.29       43.72       43.97       44.04       44.14       44.29    
  16    38.37       38.04       38.00       37.92       37.87       37.91       37.98       38.02       38.06       38.11    
        38.18       38.25       38.33       38.42       38.52       38.62       38.72       38.82       38.93       39.04    
        39.15       39.26       39.38       39.49       39.61       39.73       39.86       39.98       40.11       40.25    
        40.39       40.53       40.68       40.84       41.01       41.19       41.37       41.58       41.79       42.01    
        42.35       42.77       42.95       43.00       43.14       43.28    
  17    37.07       36.67       36.64       36.56       36.50       36.52       36.60       36.69       36.72       36.77    
        36.84       36.92       37.01       37.10       37.20       37.31       37.42       37.53       37.65       37.77    
        37.89       38.01       38.13       38.26       38.39       38.52       38.65       38.79       38.93       39.08    
        39.23       39.38       39.55       39.72       39.90       40.09       40.30       40.52       40.75       40.99    
        41.43       41.79       41.91       41.97       42.14       42.29    
  18    35.79       35.30       35.29       35.22       35.14       35.14       35.21       35.33       35.39       35.44    
        35.51       35.59       35.69       35.79       35.90       36.01       36.13       36.25       36.37       36.50    
        36.63       36.76       36.90       37.03       37.17       37.31       37.45       37.60       37.75       37.91    
        38.07       38.24       38.42       38.61       38.81       39.01       39.24       39.47       39.71       40.03    
        40.50       40.78       40.88       40.94       41.15       41.30    
  19    34.51       33.94       33.95       33.87       33.79       33.77       33.83       33.95       34.07       34.12    
        34.19       34.27       34.37       34.48       34.59       34.71       34.84       34.97       35.10       35.24    
        35.38       35.52       35.66       35.81       35.96       36.11       36.26       36.42       36.59       36.76    
        36.93       37.12       37.31       37.51       37.72       37.95       38.18       38.43       38.69       39.11    
        39.55       39.77       39.85       39.92       40.16       40.32    
  20    33.23       32.58       32.60       32.54       32.45       32.41       32.44       32.57       32.73       32.80    
        32.87       32.96       33.06       33.18       33.30       33.42       33.56       33.70       33.84       33.98    
        34.13       34.28       34.44       34.59       34.75       34.92       35.08       35.25       35.43       35.61    
        35.80       36.00       36.20       36.42       36.65       36.89       37.14       37.41       37.72       38.20    
        38.58       38.75       38.82       38.92       39.17       39.35    
  21    31.96       31.25       31.26       31.20       31.12       31.06       31.07       31.18       31.36       31.50    
        31.57       31.66       31.76       31.88       32.01       32.14       32.28       32.43       32.58       32.74    
        32.89       33.06       33.22       33.39       33.56       33.73       33.91       34.09       34.28       34.48    
        34.68       34.89       35.11       35.34       35.59       35.85       36.11       36.39       36.79       37.28    
        37.59       37.72       37.79       37.93       38.19       38.40    
  22    30.69       29.94       29.92       29.87       29.79       29.72       29.71       29.80       29.98       30.18    
        30.28       30.36       30.47       30.59       30.72       30.87       31.02       31.17       31.33       31.50    
        31.66       31.83       32.01       32.19       32.37       32.55       32.74       32.94       33.14       33.35    
        33.57       33.80       34.03       34.28       34.54       34.81       35.09       35.41       35.88       36.34    
        36.58       36.70       36.77       36.96       37.22       37.48    
  23    29.43       28.65       28.58       28.55       28.47       28.39       28.36       28.43       28.59       28.83    
        29.00       29.08       29.19       29.31       29.45       29.60       29.76       29.92       30.09       30.26    
        30.44       30.62       30.81       31.00       31.19       31.39       31.59       31.80       32.01       32.24    
        32.47       32.71       32.96       33.23       33.50       33.79       34.09       34.47       34.97       35.37    
        35.57       35.68       35.76       35.99       36.25       36.58    
  24    28.17       27.38       27.24       27.23       27.15       27.07       27.03       27.06       27.21       27.45    
        27.70       27.81       27.91       28.04       28.18       28.34       28.50       28.68       28.85       29.04    
        29.23       29.42       29.62       29.82       30.02       30.23       30.45       30.67       30.90       31.13    
        31.38       31.64       31.91       32.19       32.48       32.78       33.10       33.56       34.05       34.39    
        34.56       34.66       34.76       35.04       35.30       35.69    
  25    26.92       26.12       25.91       25.91       25.84       25.76       25.71       25.72       25.84       26.07    
        26.36       26.55       26.65       26.78       26.93       27.09       27.26       27.44       27.63       27.82    
        28.02       28.22       28.43       28.64       28.86       29.08       29.31       29.55       29.79       30.04    
        30.31       30.58       30.86       31.16       31.46       31.78       32.16       32.65       33.11       33.40    
        33.55       33.65       33.77       34.09       34.35       34.82    
  26    25.67       24.87       24.58       24.60       24.54       24.46       24.40       24.39       24.48       24.69    
        24.99       25.28       25.41       25.54       25.69       25.85       26.03       26.22       26.41       26.62    
        26.83       27.04       27.26       27.48       27.71       27.95       28.19       28.44       28.70       28.97    
        29.24       29.53       29.83       30.14       30.46       30.79       31.24       31.74       32.16       32.40    
        32.54       32.65       32.80       33.15       33.41       33.96    
  27    24.42       23.63       23.25       23.29       23.24       23.17       23.10       23.08       23.14       23.32    
        23.62       23.96       24.18       24.30       24.45       24.62       24.81       25.00       25.21       25.42    
        25.64       25.87       26.10       26.33       26.58       26.83       27.08       27.34       27.62       27.90    
        28.19       28.50       28.81       29.14       29.47       29.84       30.33       30.82       31.19       31.40    
        31.54       31.65       31.84       32.22       32.48       33.11    
  28    23.18       22.39       21.93       21.99       21.96       21.88       21.82       21.78       21.82       21.97    
        22.25       22.61       22.94       23.09       23.24       23.41       23.60       23.80       24.01       24.24    
        24.47       24.70       24.95       25.20       25.45       25.71       25.98       26.26       26.55       26.85    
        27.15       27.47       27.80       28.14       28.49       28.92       29.42       29.89       30.21       30.40    
        30.54       30.66       30.90       31.29       31.56       32.28    
  29    21.93       21.17       20.62       20.70       20.67       20.61       20.54       20.50       20.52       20.63    
        20.89       21.25       21.64       21.89       22.03       22.21       22.40       22.61       22.83       23.06    
        23.30       23.55       23.81       24.07       24.34       24.61       24.90       25.19       25.49       25.80    
        26.13       26.46       26.81       27.16       27.54       28.01       28.51       28.95       29.22       29.41    
        29.55       29.69       29.98       30.38       30.65       31.45    
  30    20.70       19.94       19.31       19.41       19.40       19.34       19.28       19.23       19.24       19.32    
        19.54       19.89       20.32       20.68       20.85       21.02       21.22       21.43       21.66       21.90    
        22.15       22.41       22.68       22.95       23.24       23.53       23.82       24.13       24.45       24.78    
        25.11       25.46       25.82       26.19       26.61       27.11       27.60       27.99       28.24       28.42    
        28.56       28.73       29.07       29.47       29.76       30.63    
  31    19.46       18.73       18.03       18.13       18.13       18.09       18.02       17.98       17.97       18.03    
        18.21       18.54       18.98       19.41       19.68       19.85       20.05       20.27       20.50       20.76    
        21.02       21.29       21.57       21.85       22.15       22.45       22.76       23.09       23.42       23.76    
        24.11       24.48       24.85       25.23       25.70       26.20       26.67       27.02       27.25       27.43    
        27.59       27.79       28.17       28.57       28.87       29.81    
  32    18.23       17.51       16.79       16.85       16.88       16.84       16.78       16.74       16.72       16.77    
        16.91       17.21       17.63       18.11       18.51       18.70       18.89       19.12       19.36       19.62    
        19.89       20.17       20.46       20.76       21.07       21.39       21.72       22.05       22.40       22.76    
        23.13       23.50       23.89       24.31       24.79       25.29       25.73       26.05       26.27       26.46    
        26.63       26.86       27.28       27.68       28.00       29.01    
  33    17.00       16.31       15.56       15.59       15.63       15.60       15.55       15.51       15.49       15.52    
        15.64       15.90       16.30       16.80       17.28       17.56       17.76       17.98       18.23       18.50    
        18.78       19.07       19.38       19.69       20.01       20.34       20.68       21.04       21.40       21.77    
        22.15       22.54       22.94       23.39       23.88       24.37       24.79       25.07       25.30       25.49    
        25.68       25.95       26.40       26.81       27.14       28.21    
  34    15.77       15.10       14.36       14.33       14.39       14.38       14.34       14.30       14.28       14.30    
        14.40       14.61       14.99       15.48       16.01       16.44       16.64       16.87       17.12       17.40    
        17.69       17.99       18.30       18.63       18.97       19.31       19.67       20.03       20.41       20.79    
        21.19       21.59       22.01       22.48       22.97       23.45       23.83       24.10       24.33       24.53    
        24.75       25.05       25.53       25.94       26.30       27.41    
  35    14.55       13.90       13.17       13.08       13.16       13.16       13.13       13.10       13.08       13.10    
        13.18       13.36       13.70       14.18       14.72       15.24       15.55       15.77       16.03       16.31    
        16.61       16.92       17.25       17.58       17.93       18.29       18.66       19.04       19.43       19.83    
        20.24       20.65       21.09       21.57       22.06       22.52       22.87       23.14       23.37       23.59    
        23.83       24.18       24.67       25.09       25.46       26.63    
  36    13.32       12.71       11.99       11.84       11.94       11.96       11.94       11.92       11.90       11.92    
        11.99       12.14       12.44       12.89       13.44       14.01       14.47       14.70       14.95       15.24    
        15.54       15.87       16.20       16.55       16.92       17.29       17.67       18.07       18.47       18.88    
        19.30       19.73       20.19       20.67       21.15       21.59       21.91       22.18       22.42       22.66    
        22.93       23.32       23.83       24.26       24.64       25.84    
  37    12.10       11.51       10.83       10.62       10.74       10.77       10.77       10.75       10.74       10.76    
        10.82       10.95       11.21       11.63       12.17       12.76       13.31       13.64       13.90       14.18    
        14.50       14.83       15.18       15.54       15.91       16.30       16.70       17.11       17.52       17.95    
        18.38       18.81       19.28       19.76       20.24       20.64       20.96       21.23       21.49       21.75    
        22.05       22.48       22.99       23.43       23.84       25.07    
  38    10.88       10.33       9.673       9.406       9.549       9.600       9.608       9.601       9.600       9.621    
        9.682       9.802       10.02       10.41       10.93       11.52       12.12       12.61       12.87       13.15    
        13.47       13.81       14.17       14.54       14.93       15.33       15.74       16.16       16.59       17.03    
        17.46       17.91       18.37       18.85       19.32       19.70       20.01       20.29       20.57       20.86    
        21.18       21.66       22.17       22.62       23.05       24.30    
  39    9.668       9.144       8.527       8.206       8.373       8.442       8.465       8.470       8.479       8.506    
        8.567       8.680       8.870       9.217       9.714       10.30       10.93       11.51       11.86       12.14    
        12.46       12.81       13.18       13.56       13.96       14.38       14.80       15.23       15.67       16.12    
        16.55       17.00       17.47       17.94       18.40       18.76       19.07       19.37       19.67       19.98    
        20.34       20.84       21.36       21.82       22.29       23.53    
  40    8.453       7.964       7.390       7.022       7.212       7.300       7.339       7.359       7.378       7.414    
        7.479       7.589       7.765       8.067       8.536       9.109       9.737       10.37       10.87       11.16    
        11.48       11.83       12.21       12.60       13.01       13.44       13.87       14.32       14.77       15.22    
        15.65       16.10       16.57       17.04       17.47       17.82       18.15       18.46       18.79       19.12    
        19.52       20.04       20.56       21.04       21.55       22.77    
  41    7.240       6.789       6.262       5.874       6.069       6.176       6.232       6.268       6.301       6.346    
        6.418       6.529       6.698       6.962       7.398       7.952       8.574       9.221       9.823       10.20    
        10.52       10.87       11.26       11.66       12.09       12.52       12.97       13.42       13.88       14.32    
        14.76       15.20       15.67       16.14       16.55       16.90       17.24       17.58       17.92       18.29    
        18.71       19.26       19.79       20.28       20.82       22.01    
  42    6.030       5.619       5.142       4.761       4.944       5.071       5.146       5.198       5.246       5.305    
        5.386       5.502       5.668       5.907       6.305       6.837       7.446       8.095       8.740       9.266    
        9.582       9.939       10.33       10.74       11.18       11.62       12.08       12.54       13.00       13.43    
        13.86       14.31       14.77       15.24       15.63       15.99       16.35       16.71       17.08       17.47    
        17.93       18.49       19.02       19.53       20.11       21.25    
  43    4.821       4.454       4.032       3.677       3.840       3.987       4.081       4.152       4.217       4.290    
        4.383       4.507       4.676       4.906       5.261       5.769       6.361       7.003       7.661       8.276    
        8.676       9.030       9.424       9.845       10.29       10.74       11.21       11.68       12.13       12.55    
        12.97       13.42       13.88       14.34       14.72       15.10       15.48       15.86       16.26       16.68    
        17.17       17.73       18.27       18.80       19.41       20.50    
  44    3.613       3.295       2.932       2.618       2.757       2.925       3.040       3.130       3.214       3.304    
        3.412       3.547       3.722       3.950       4.271       4.753       5.327       5.954       6.610       7.259    
        7.800       8.150       8.544       8.972       9.422       9.887       10.36       10.83       11.26       11.67    
        12.09       12.54       13.01       13.44       13.84       14.23       14.63       15.04       15.46       15.91    
        16.43       16.99       17.54       18.08       18.72       19.75    
  45    2.408       2.142       1.842       1.580       1.697       1.888       2.024       2.136       2.240       2.349    
        2.474       2.623       2.808       3.040       3.340       3.792       4.347       4.958       5.602       6.257    
        6.876       7.300       7.692       8.124       8.581       9.053       9.532       9.986       10.40       10.80    
        11.23       11.67       12.15       12.57       12.97       13.38       13.80       14.24       14.69       15.17    
        15.71       16.27       16.83       17.38       18.04       19.01    
  46    1.204      0.9958      0.7639      0.5620      0.6638      0.8776       1.036       1.170       1.297       1.427    
        1.570       1.737       1.936       2.176       2.474       2.890       3.428       4.022       4.650       5.296    
        5.935       6.484       6.870       7.303       7.766       8.243       8.724       9.147       9.547       9.951    
        10.37       10.83       11.29       11.71       12.13       12.57       13.01       13.47       13.94       14.44    
        15.00       15.57       16.14       16.69       17.36       18.27    
  47   2.9754E-03 -0.1428     -0.3019     -0.4366     -0.3421     -0.1045      7.7821E-02  0.2364      0.3866      0.5395    
       0.7046      0.8906       1.106       1.361       1.664       2.053       2.573       3.150       3.761       4.392    
        5.026       5.633       6.081       6.512       6.978       7.459       7.919       8.323       8.718       9.121    
        9.545       10.00       10.46       10.89       11.33       11.78       12.24       12.72       13.22       13.75    
        14.32       14.89       15.46       16.03       16.70       17.53    
  48   -1.196      -1.273      -1.354      -1.416      -1.318      -1.056     -0.8482     -0.6636     -0.4876     -0.3098    
      -0.1212      8.6802E-02  0.3224      0.5938      0.9101       1.286       1.788       2.349       2.942       3.555    
        4.174       4.784       5.329       5.753       6.220       6.701       7.128       7.522       7.915       8.319    
        8.747       9.208       9.656       10.10       10.56       11.03       11.51       12.01       12.53       13.08    
        13.65       14.23       14.81       15.37       16.03       16.80    
  49   -2.392      -2.393      -2.392      -2.376      -2.262      -1.974      -1.739      -1.526      -1.323      -1.118    
      -0.9037     -0.6715     -0.4135     -0.1215      0.2124      0.5976       1.076       1.622       2.198       2.792    
        3.393       3.988       4.561       5.030       5.495       5.959       6.364       6.757       7.150       7.556    
        7.987       8.446       8.899       9.360       9.831       10.32       10.81       11.33       11.87       12.43    
        13.01       13.59       14.17       14.74       15.38       16.07    
  50   -3.585      -3.503      -3.415      -3.315      -3.170      -2.855      -2.592      -2.349      -2.115      -1.882    
       -1.640      -1.381      -1.098     -0.7828     -0.4274     -2.3992E-02  0.4445      0.9759       1.535       2.111    
        2.692       3.268       3.827       4.345       4.805       5.241       5.645       6.039       6.435       6.844    
        7.277       7.734       8.196       8.668       9.150       9.646       10.16       10.69       11.24       11.81    
        12.39       12.97       13.56       14.12       14.72       15.35    
  51   -4.773      -4.601      -4.421      -4.235      -4.033      -3.697      -3.402      -3.127      -2.861      -2.597    
       -2.325      -2.037      -1.727      -1.386      -1.007     -0.5804     -9.6606E-02  0.4227      0.9627       1.516    
        2.078       2.634       3.172       3.682       4.149       4.578       4.987       5.411       5.863       6.331    
        6.810       7.296       7.788       8.285       8.786       9.292       9.802       10.32       10.84       11.37    
        11.90       12.42       12.96       13.52       14.08       14.63    
  52   -5.955      -5.686      -5.412      -5.133      -4.852      -4.497      -4.167      -3.857      -3.556      -3.258    
       -2.954      -2.628      -2.165      -1.626      -1.070     -0.5243     -4.1431E-03  0.4783      0.9145       1.351    
        1.795       2.247       2.703       3.165       3.630       4.098       4.568       5.040       5.513       5.988    
        6.463       6.940       7.417       7.897       8.380       8.866       9.355       9.844       10.33       10.83    
        11.33       11.83       12.34       12.85       13.36       13.88    
  53   -7.128      -6.759      -6.386      -6.012      -5.636      -5.248      -4.881      -4.502      -4.017      -3.566    
       -3.141      -2.710      -2.275      -1.838      -1.401     -0.9637     -0.5284     -9.3218E-02  0.3436      0.7821    
        1.223       1.665       2.109       2.556       3.005       3.456       3.909       4.365       4.824       5.285    
        5.750       6.217       6.687       7.160       7.637       8.117       8.600       9.087       9.577       10.07    
        10.57       11.07       11.58       12.09       12.60       13.12    
  54   -8.292      -7.821      -7.349      -6.874      -6.399      -5.959      -5.537      -5.114      -4.690      -4.265    
       -3.840      -3.413      -2.986      -2.557      -2.128      -1.696      -1.264     -0.8296     -0.3938      4.3799E-02
       0.4832      0.9246       1.368       1.813       2.261       2.711       3.164       3.619       4.076       4.537    
        5.000       5.466       5.935       6.408       6.883       7.362       7.844       8.330       8.819       9.312    
        9.809       10.31       10.81       11.32       11.84       12.35    


 STRESS PERIOD     LENGTH       TIME STEPS     MULTIPLIER FOR DELT    SS FLAG
 ----------------------------------------------------------------------------
        1        6.3115200E+08      1                    1.000         SS

 STEADY-STATE SIMULATION



 
 # Basic Package file created on 2017-05-30 by ModelMuse version 3.9.0.0.        
 THE FREE FORMAT OPTION HAS BEEN SELECTED
 THE PRINTTIME OPTION HAS BEEN SELECTED
 CALCULATE FLOW BETWEEN ADJACENT CONSTANT-HEAD CELLS



                     BOUNDARY ARRAY FOR LAYER   1
 READING ON UNIT   13 WITH FORMAT: (FREE)              

          1     2     3     4     5     6     7     8     9    10    11    12    13    14    15    16    17    18    19    20
         21    22    23    24    25    26    27    28    29    30    31    32    33    34    35    36    37    38    39    40
         41    42    43    44    45    46
 ............................................................................................................................
   1      0     0     0     0     0     0     1     1     1     1     1     1     1     1     1     1     1     1     1     1
          1     1     1     1     1     1     1     1     1     1     1     1     1     1     1     1     1     0     0     0
          0     0     0     0     0     0
   2      0     0     0     0     1     1     1     1     1     1     1     1     1     1     1     1     1     1     1     1
          1     1     1     1     1     1     1     1     1     1     1     1     1     1     1     1     1     1     1     1
          1     0     0     0     0     0
   3      0     0     0     1     1     1     1     1     1     1     1     1     1     1     1     1     1     1     1     1
          1     1     1     1     1     1     1     1     1     1     1     1     1     1     1     1     1     1     1     1
          0     0     0     0     0     0
   4      0     0     0     1     1     1     1     1     1     1     1     1     1     1     1     1     1     1     1     1
          1     1     1     1     1     1     1     1     1     1     1     1     1     1     1     1     1     1     1     1
          0     0     0     0     0     0
   5      0     0     0     1     1     1     1     1     1     1     1     1     1     1     1     1     1     1     1     1
          1     1     1     1     1     1     1     1     1     1     1     1     1     1     1     1     1     1     1     1
          0     0     0     0     0     0
   6      0     0     0     1     1     1     1     1     1     1     1     1     1     1     1     1     1     1     1     1
          1     1     1     1     1     1     1     1     1     1     1     1     1     1     1     1     1     1     1     1
          0     0     0     0     0     0
   7      0     0     0     1     1     1     1     1     1     1     1     1     1     1     1     1     1     1     1     1
          1     1     1     1     1     1     1     1     1     1     1     1     1     1     1     1     1     1     1     1
          0     0     0     0     0     0
   8      0     0     0     0     1     1     1     1     1     1     1     1     1     1     1     1     1     1     1     1
          1     1     1     1     1     1     1     1     1     1     1     1     1     1     1     1     1     1     1     1
          0     0     0     0     0     0
   9      0     0     0     0     1     1     1     1     1     1     1     1     1     1     1     1     1     1     1     1
          1     1     1     1     1     1     1     1     1     1     1     1     1     1     1     1     1     1     1     1
          0     0     0     0     0     0
  10      0     0     0     0     1     1     1     1     1     1     1     1     1     1     1     1     1     1     1     1
          1     1     1     1     1     1     1     1     1     1     1     1     1     1     1     1     1     1     1     1
          0     0     0     0     0     0
  11      0     0     0     0     1     1     1     1     1     1     1     1     1     1     1     1     1     1     1     1
          1     1     1     1     1     1     1     1     1     1     1     1     1     1     1     1     1     1     1     1
          1     0     0     0     0     0
  12      0     0     0     0     1     1     1     1     1     1     1     1     1     1     1     1     1     1     1     1
          1     1     1     1     1     1     1     1     1     1     1     1     1     1     1     1     1     1     1     1
          1     1     0     0     0     0
  13      0     0     0     0     1     1     1     1     1     1     1     1     1     1     1     1     1     1     1     1
          1     1     1     1     1     1     1     1     1     1     1     1     1     1     1     1     1     1     1     1
          1     1     1     0     0     0
  14      0     0     0     0     1     1     1     1     1     1     1     1     1     1     1     1     1     1     1     1
          1     1     1     1     1     1     1     1     1     1     1     1     1     1     1     1     1     1     1     1
          1     1     1     0     0     0
  15      0     0     0     0     1     1     1     1     1     1     1     1     1     1     1     1     1     1     1     1
          1     1     1     1     1     1     1     1     1     1     1     1     1     1     1     1     1     1     1     1
          1     1     1     0     0     0
  16      0     0     0     0     1     1     1     1     1     1     1     1     1     1     1     1     1     1     1     1
          1     1     1     1     1     1     1     1     1     1     1     1     1     1     1     1     1     1     1     1
          1     1     1     1     0     0
  17      0     0     0     0     1     1     1     1     1     1     1     1     1     1     1     1     1     1     1     1
          1     1     1     1     1     1     1     1     1     1     1     1     1     1     1     1     1     1     1     1
          1     1     1     1     0     0
  18      0     0     0     1     1     1     1     1     1     1     1     1     1     1     1     1     1     1     1     1
          1     1     1     1     1     1     1     1     1     1     1     1     1     1     1     1     1     1     1     1
          1     1     1     1     0     0
  19      0     0     0     1     1     1     1     1     1     1     1     1     1     1     1     1     1     1     1     1
          1     1     1     1     1     1     1     1     1     1     1     1     1     1     1     1     1     1     1     1
          1     1     1     1     0     0
  20      0     0     0     1     1     1     1     1     1     1     1     1     1     1     1     1     1     1     1     1
          1     1     1     1     1     1     1     1     1     1     1     1     1     1     1     0     0     1     1     1
          1     1     1     1     0     0
  21      0     0     0     1     1     1     1     1     1     1     1     1     1     1     1     1     1     1     1     1
          1     1     1     1     1     1     1     1     1     1     1     1     1     0     0     0     0     1     1     1
          1     1     1     1     0     0
  22      0     0     0     1     1     1     1     1     1     1     1     1     1     1     1     1     1     1     1     1
          1     1     1     1     1     1     1     1     1     1     1     1     0     0     0     0     0     1     1     1
          1     1     1     1     0     0
  23      0     0     0     1     1     1     1     1     1     1     1     1     1     1     1     1     1     1     1     1
          1     1     1     1     1     1     1     1     1     1     1     1     0     0     0     0     1     1     1     1
          1     1     1     1     0     0
  24      0     0     0     1     1     1     1     1     1     1     1     1     1     1     1     1     1     1     1     1
          1     1     1     1     1     1     1     1     1     1     1     0     0     0     0     0     1     1     1     1
          1     1     1     1     0     0
  25      0     0     0     0     1     1     1     1     1     1     1     1     1     1     1     1     1     1     1     1
          1     1     0     0     1     1     1     1     1     1     1     0     0     0     0     1     1     1     1     1
          1     1     1     1     0     0
  26      0     0     0     0     1     1     1     1     1     1     1     1     1     1     1     1     1     1     1     1
          1     0     0     0     0     1     1     1     1     1     1     0     0     0     0     1     1     1     1     1
          1     1     1     0     0     0
  27      0     0     0     0     0     1     1     1     1     1     1     1     1     1     1     1     1     1     1     1
          0     0     0     0     0     1     1     1     1     1     1     0     0     0     0     1     1     1     1     1
          1     1     1     0     0     0
  28      0     0     0     0     0     1     1     1     1     1     1     1     1     1     1     1     1     1     1     1
          0     0     0     0     0     1     1     1     1     1     1     1     0     0     1     1     1     1     1     1
          1     1     1     0     0     0
  29      0     0     0     0     0     0     1     1     1     1     1     1     1     1     1     1     1     1     1     0
          0     0     0     0     1     1     1     1     1     1     1     1     1     1     1     1     1     1     1     1
          1     1     1     0     0     0
  30      0     0     0     0     0     0     1     1     1     1     1     1     1     1     1     1     1     1     1     1
          0     0     0     0     1     1     1     1     1     1     1     1     1     1     1     1     1     1     1     1
          1     1     1     0     0     0
  31      0     0     0     0     0     0     0     1     1     1     1     1     1     1     1     1     1     1     1     1
          0     0     0     1     1     1     1     1     1     1     1     1     1     1     1     1     1     1     1     1
          1     1     0     0     0     0
  32      0     0     0     0     0     0     0     1     1     1     1     1     1     1     1     1     1     1     1     0
          0     0     0     1     1     1     1     1     1     1     1     1     1     1     1     1     1     1     1     1
          1     1     0     0     0     0
  33      0     0     0     0     0     0     0     1     1     1     1     1     1     1     1     1     1     1     0     0
          0     0     0     1     1     1     1     1     1     1     1     1     1     1     1     1     1     1     1     1
          1     1     0     0     0     0
  34      0     0     0     0     0     0     0     0     1     1     1     1     1     1     1     1     1     1     0     0
          0     0     0     0     1     1     1     1     1     1     1     1     1     1     1     1     1     1     1     1
          1     0     0     0     0     0
  35      0     0     0     0     0     0     0     0     1     1     1     1     1     1     1     1     1     1     0     0
          0     0     0     1     1     1     1     1     1     1     1     1     1     1     1     1     1     1     1     1
[...]
 No named parameters
 MAXIMUM OF    122 TIME-VARIANT SPECIFIED-HEAD CELLS AT ONE TIME
 AUXILIARY CHD VARIABLE: IFACE           


     0 TIME-VARIANT SPECIFIED-HEAD PARAMETERS

 PCG -- CONJUGATE-GRADIENT SOLUTION PACKAGE, VERSION 7, 5/2/2005
 # PCG: Preconditioned Conjugate Gradient package file created on 2017-05-30 by ModelMuse version 3.9.0.0.
 MAXIMUM OF     20 CALLS OF SOLUTION ROUTINE
 MAXIMUM OF     30 INTERNAL ITERATIONS PER CALL TO SOLUTION ROUTINE
 MATRIX PRECONDITIONING TYPE :    1



                                    SOLUTION BY THE CONJUGATE-GRADIENT METHOD
                                   -------------------------------------------
                    MAXIMUM NUMBER OF CALLS TO PCG ROUTINE =       20
                        MAXIMUM ITERATIONS PER CALL TO PCG =       30
                               MATRIX PRECONDITIONING TYPE =        1
        RELAXATION FACTOR (ONLY USED WITH PRECOND. TYPE 1) =    0.10000E+01
 PARAMETER OF POLYNOMIAL PRECOND. = 2 (2) OR IS CALCULATED :        1
                         HEAD CHANGE CRITERION FOR CLOSURE =    0.10000E-02
                     RESIDUAL CHANGE CRITERION FOR CLOSURE =    0.10000E+04
            PCG HEAD AND RESIDUAL CHANGE PRINTOUT INTERVAL =        1
     PRINTING FROM SOLVER IS LIMITED(1) OR SUPPRESSED (>1) =        0
                            STEADY-STATE DAMPING PARAMETER =    0.10000E+01
                               TRANSIENT DAMPING PARAMETER =    0.10000E+01


 ***Link-MT3DMS Package v7***
 OPENING LINK-MT3DMS OUTPUT FILE: rocky-mountain-arsenal.ftl                                                                                                                                                                              
 ON UNIT NUMBER:   136
 FILE TYPE: UNFORMATTED
 HEADER OPTION: EXTENDED
 ***Link-MT3DMS Package v7***

1
                            STRESS PERIOD NO.    1, LENGTH =  0.6311520E+09
                            -----------------------------------------------

                              NUMBER OF TIME STEPS =     1

                               MULTIPLIER FOR DELT =     1.000

                            INITIAL TIME STEP SIZE =  0.6311520E+09

 WELL NO.  LAYER   ROW   COL   STRESS RATE         IFACE           
 ------------------------------------------------------------------
      1      1     13     29      0.1250E-01       0.000    
      2      1     13     30      0.1250E-01       0.000    
      3      1     42     15     -0.1000E-02       0.000    
      4      1     44     23     -0.2000E-02       0.000    

      4 WELLS

 CHD NO.   LAYER   ROW   COL    START HEAD        END HEAD         IFACE           
 ----------------------------------------------------------------------------------
      1      1      1      8       75.00           75.00           0.000    
      2      1      2      8       75.00           75.00           0.000    
      3      1      1      9       75.00           75.00           0.000    
      4      1      2      9       75.00           75.00           0.000    
      5      1      1     10       75.00           75.00           0.000    
      6      1      2     10       75.00           75.00           0.000    
      7      1      3     10       75.00           75.00           0.000    
      8      1      1     11       75.00           75.00           0.000    
      9      1      2     11       75.00           75.00           0.000    
     10      1      3     11       75.00           75.00           0.000    
     11      1      1     12       75.00           75.00           0.000    
     12      1      2     12       75.00           75.00           0.000    
     13      1      3     12       75.00           75.00           0.000    
     14      1      1     13       75.00           75.00           0.000    
     15      1      2     13       75.00           75.00           0.000    
     16      1      3     13       75.00           75.00           0.000    
     17      1      1     14       75.00           75.00           0.000    
     18      1      2     14       75.00           75.00           0.000    
     19      1      3     14       75.00           75.00           0.000    
     20      1      1     15       75.00           75.00           0.000    
     21      1      2     15       75.00           75.00           0.000    
     22      1      3     15       75.00           75.00           0.000    
     23      1      1     16       75.00           75.00           0.000    
     24      1      2     16       75.00           75.00           0.000    
     25      1      3     16       75.00           75.00           0.000    
     26      1      1     17       75.00           75.00           0.000    
     27      1      2     17       75.00           75.00           0.000    
     28      1      3     17       75.00           75.00           0.000    
     29      1      1     18       75.00           75.00           0.000    
     30      1      2     18       75.00           75.00           0.000    
     31      1      3     18       75.00           75.00           0.000    
     32      1      1     19       75.00           75.00           0.000    
     33      1      2     19       75.00           75.00           0.000    
     34      1      1     20       75.00           75.00           0.000    
     35      1      2     20       75.00           75.00           0.000    
     36      1      1     21       75.00           75.00           0.000    
     37      1      2     21       75.00           75.00           0.000    
     38      1      1     22       75.00           75.00           0.000    
     39      1      2     22       75.00           75.00           0.000    
     40      1      1     23       75.00           75.00           0.000    
     41      1      2     23       75.00           75.00           0.000    
     42      1      1     24       75.00           75.00           0.000    
     43      1      2     24       75.00           75.00           0.000    
     44      1      1     25       75.00           75.00           0.000    
     45      1      2     25       75.00           75.00           0.000    
     46      1      1     26       75.00           75.00           0.000    
     47      1      2     26       75.00           75.00           0.000    
     48      1      1     27       75.00           75.00           0.000    
     49      1      2     27       75.00           75.00           0.000    
     50      1      1     28       75.00           75.00           0.000    
     51      1      2     28       75.00           75.00           0.000    
     52      1      1     29       75.00           75.00           0.000    
     53      1      2     29       75.00           75.00           0.000    
     54      1      1     30       75.00           75.00           0.000    
     55      1      2     30       75.00           75.00           0.000    
     56      1      1     31       75.00           75.00           0.000    
     57      1      2     31       75.00           75.00           0.000    
     58      1      3     31       75.00           75.00           0.000    
     59      1      1     32       75.00           75.00           0.000    
     60      1      2     32       75.00           75.00           0.000    
     61      1      3     32       75.00           75.00           0.000    
     62      1      1     33       75.00           75.00           0.000    
     63      1      2     33       75.00           75.00           0.000    
     64      1      3     33       75.00           75.00           0.000    
     65      1      1     34       75.00           75.00           0.000    
     66      1      2     34       75.00           75.00           0.000    
     67      1      3     34       75.00           75.00           0.000    
     68      1      1     35       75.00           75.00           0.000    
     69      1      2     35       75.00           75.00           0.000    
     70      1      1     36       75.00           75.00           0.000    
     71      1      2     36       75.00           75.00           0.000    
     72      1     54      1       2.688           2.688           0.000    
     73      1     53      1       2.913           2.913           0.000    
     74      1     53      2       3.377           3.377           0.000    
     75      1     53      3       3.877           3.877           0.000    
     76      1     53      4       4.378           4.378           0.000    
     77      1     53      5       4.878           4.878           0.000    
     78      1     53      6       5.556           5.556           0.000    
     79      1     53      7       5.887           5.887           0.000    
     80      1     53      8       6.398           6.398           0.000    
     81      1     53      9       6.857           6.857           0.000    
     82      1     52      9       7.112           7.112           0.000    
     83      1     52     10       7.420           7.420           0.000    
     84      1     52     11       7.931           7.931           0.000    
     85      1     52     12       8.442           8.442           0.000    
     86      1     52     13       8.953           8.953           0.000    
     87      1     52     14       9.313           9.313           0.000    
     88      1     51     14       9.569           9.569           0.000    
     89      1     51     15       9.976           9.976           0.000    
     90      1     51     16       10.49           10.49           0.000    
     91      1     51     17       11.20           11.20           0.000    
     92      1     51     18       11.50           11.50           0.000    
     93      1     51     19       12.00           12.00           0.000    
     94      1     51     20       12.50           12.50           0.000    
     95      1     51     21       13.00           13.00           0.000    
     96      1     51     22       13.50           13.50           0.000    
     97      1     51     23       14.00           14.00           0.000    
     98      1     51     24       14.50           14.50           0.000    
     99      1     51     25       15.18           15.18           0.000    
    100      1     51     26       15.51           15.51           0.000    
    101      1     51     27       16.01           16.01           0.000    
    102      1     51     28       16.52           16.52           0.000    
    103      1     51     29       17.02           17.02           0.000    
    104      1     51     30       17.52           17.52           0.000    
    105      1     51     31       17.80           17.80           0.000    
    106      1     50     31       18.16           18.16           0.000    
    107      1     50     32       18.53           18.53           0.000    
    108      1     50     33       19.03           19.03           0.000    
    109      1     50     34       19.53           19.53           0.000    
    110      1     50     35       20.03           20.03           0.000    
    111      1     50     36       20.53           20.53           0.000    
    112      1     50     37       20.94           20.94           0.000    
    113      1     51     37       21.19           21.19           0.000    
    114      1     51     38       21.52           21.52           0.000    
    115      1     51     39       22.18           22.18           0.000    
    116      1     51     40       22.52           22.52           0.000    
    117      1     51     41       23.02           23.02           0.000    
    118      1     51     42       23.76           23.76           0.000    
    119      1     51     43       24.03           24.03           0.000    
    120      1     51     44       24.53           24.53           0.000    
    121      1     51     45       25.04           25.04           0.000    
    122      1     51     46       25.55           25.55           0.000    


    122 TIME-VARIANT SPECIFIED-HEAD CELLS
 
 SOLVING FOR HEAD 


     4 CALLS TO PCG ROUTINE FOR TIME STEP   1 IN STRESS PERIOD    1
    70 TOTAL ITERATIONS

 MAXIMUM HEAD CHANGE FOR EACH ITERATION (1 INDICATES THE FIRST INNER ITERATION):

    HEAD CHANGE    HEAD CHANGE    HEAD CHANGE    HEAD CHANGE    HEAD CHANGE 
   LAYER,ROW,COL  LAYER,ROW,COL  LAYER,ROW,COL  LAYER,ROW,COL  LAYER,ROW,COL
 ---------------------------------------------------------------------------
  1   125.8      0  -89.80      0  -48.96      0  -46.69      0  -38.44    
   (  1, 32, 19)  (  1, 32, 19)  (  1, 31, 20)  (  1, 28, 20)  (  1, 26, 21)
  0   21.84      0   26.17      0   24.79      0  -13.13      0   8.961    
   (  1, 26, 21)  (  1, 25, 22)  (  1, 31, 42)  (  1, 33, 42)  (  1, 32, 19)
  0  -15.01      0  -8.581      0  -8.807      0   10.25      0  -8.225    
   (  1, 37, 41)  (  1, 31, 20)  (  1, 30, 43)  (  1, 22, 32)  (  1, 23, 32)
  0  -5.302      0   5.690      0  -3.420      0   4.548      0   1.909    
   (  1, 32, 19)  (  1, 32, 19)  (  1, 28, 20)  (  1, 21, 33)  (  1, 30, 20)
  0   2.381      0  -2.192      0  0.6978      0 -0.7888      0   1.340    
   (  1, 33, 18)  (  1, 20, 35)  (  1, 32, 19)  (  1, 31, 42)  (  1, 26, 21)
  0  -1.514      0  0.8282      0 -0.5705      0  0.5220      0 -0.3094    
   (  1, 26, 21)  (  1, 31, 20)  (  1, 30, 20)  (  1, 25, 22)  (  1, 32, 19)
  1  0.2737      0 -0.4852      0  0.2133      0 -0.3431      0  0.2419    
   (  1, 32, 19)  (  1, 25, 22)  (  1, 28, 20)  (  1, 31, 20)  (  1, 30, 20)
  0 -0.1492      0  0.1605      0 -0.5912E-01  0  0.1314      0 -0.1130    
   (  1, 34, 41)  (  1, 38, 40)  (  1, 32, 19)  (  1, 26, 21)  (  1, 26, 21)
  0  0.6670E-01  0 -0.9430E-01  0 -0.4904E-01  0 -0.5950E-01  0  0.3048E-01
   (  1, 33, 42)  (  1, 20, 35)  (  1, 31, 20)  (  1, 21, 33)  (  1, 32, 19)
  0 -0.5600E-01  0  0.4343E-01  0  0.2476E-01  0 -0.3111E-01  0 -0.9528E-02
   (  1, 26, 43)  (  1, 21, 33)  (  1, 27, 20)  (  1, 21, 33)  (  1, 32, 19)
  0  0.1686E-01  0  0.2136E-01  0  0.1561E-01  0  0.5317E-02  0 -0.6513E-02
   (  1, 32, 19)  (  1, 30, 20)  (  1, 23, 32)  (  1, 33, 42)  (  1, 31, 42)
  0 -0.6771E-02  0  0.3286E-02  0 -0.7687E-02  0  0.5527E-02  0 -0.3227E-02
   (  1, 26, 21)  (  1, 32, 19)  (  1, 25, 22)  (  1, 25, 22)  (  1, 31, 20)
  1  0.2131E-02  0 -0.1872E-02  0 -0.1492E-02  0 -0.1247E-02  0  0.1201E-02
   (  1, 31, 20)  (  1, 30, 20)  (  1, 27, 20)  (  1, 32, 19)  (  1, 28, 20)
  0 -0.1176E-02  0 -0.2032E-02  0  0.1826E-02  0  0.9219E-03  1 -0.7544E-03
   (  1, 25, 22)  (  1, 26, 21)  (  1, 25, 22)  (  1, 31, 42)  (  1, 31, 42)

 MAXIMUM RESIDUAL FOR EACH ITERATION (1 INDICATES THE FIRST INNER ITERATION):

    RESIDUAL       RESIDUAL       RESIDUAL       RESIDUAL       RESIDUAL    
   LAYER,ROW,COL  LAYER,ROW,COL  LAYER,ROW,COL  LAYER,ROW,COL  LAYER,ROW,COL
 ---------------------------------------------------------------------------
  1 -0.7398E-01  0  0.7171E-01  0  0.7506E-01  0  0.7812E-01  0  0.7877E-01
   (  1,  3,  9)  (  1,  3,  7)  (  1,  3,  7)  (  1,  3,  7)  (  1,  3,  7)
  0  0.7596E-01  0  0.6505E-01  0  0.5504E-01  0  0.4835E-01  0  0.4756E-01
   (  1,  3,  7)  (  1,  3,  7)  (  1,  3,  7)  (  1,  3,  7)  (  1,  3,  7)
  0  0.3129E-01  0  0.3010E-01  0  0.2500E-01  0  0.1841E-01  0 -0.1132E-01
   (  1,  3,  7)  (  1,  3,  7)  (  1,  2,  7)  (  1,  2,  7)  (  1,  4,  7)
  0 -0.1068E-01  0 -0.8766E-02  0 -0.8121E-02  0  0.6350E-02  0  0.6227E-02
   (  1,  4,  7)  (  1,  4,  7)  (  1,  4,  7)  (  1,  4, 30)  (  1,  4, 30)
  0  0.4421E-02  0  0.3337E-02  0  0.3295E-02  0  0.3172E-02  0  0.2572E-02
   (  1,  4, 30)  (  1,  4, 30)  (  1,  4, 30)  (  1,  4, 30)  (  1,  4,  6)
  0  0.1955E-02  0  0.1713E-02  0  0.1134E-02  0  0.8003E-03  0  0.7667E-03
   (  1,  4,  6)  (  1,  4,  6)  (  1,  4, 30)  (  1,  4, 30)  (  1,  4, 30)
  1  0.7651E-03  0  0.7541E-03  0  0.7273E-03  0  0.6425E-03  0  0.5820E-03
   (  1,  4, 30)  (  1,  4, 30)  (  1,  4, 30)  (  1,  4, 30)  (  1,  4, 30)
  0  0.5354E-03  0  0.3737E-03  0  0.3703E-03  0  0.3465E-03  0  0.2278E-03
   (  1,  4, 30)  (  1,  4, 30)  (  1,  4, 30)  (  1,  4, 30)  (  1,  4, 30)
  0  0.2122E-03  0  0.1442E-03  0  0.1389E-03  0  0.9756E-04  0  0.9520E-04
   (  1,  4, 30)  (  1,  4, 30)  (  1,  4, 30)  (  1,  4, 30)  (  1,  4, 30)
  0  0.6667E-04  0  0.5146E-04  0  0.4839E-04  0  0.3413E-04  0  0.3342E-04
   (  1,  5, 29)  (  1,  5, 29)  (  1,  5, 29)  (  1,  5, 29)  (  1,  5, 29)
  0  0.2875E-04  0 -0.2409E-04  0 -0.1940E-04  0 -0.1624E-04  0 -0.1468E-04
   (  1,  5, 29)  (  1,  6,  5)  (  1,  6,  5)  (  1,  6,  5)  (  1,  6,  5)
  0 -0.1339E-04  0 -0.1311E-04  0 -0.9976E-05  0  0.5522E-05  0  0.5323E-05
   (  1,  6,  5)  (  1,  6,  5)  (  1, 25, 22)  (  1,  6,  7)  (  1,  6,  7)
  1  0.5233E-05  0  0.5109E-05  0  0.4628E-05  0  0.4583E-05  0  0.4477E-05
   (  1,  6,  7)  (  1,  6,  7)  (  1,  6,  7)  (  1,  6,  7)  (  1,  6,  7)
  0  0.4310E-05  0  0.3541E-05  0  0.2887E-05  0  0.2743E-05  1  0.2725E-05
   (  1,  5, 29)  (  1,  5, 29)  (  1,  5, 29)  (  1,  5, 29)  (  1,  5, 29)



 OUTPUT CONTROL FOR STRESS PERIOD    1   TIME STEP    1
    SAVE HEAD FOR ALL LAYERS
    SAVE DRAWDOWN FOR ALL LAYERS
    SAVE BUDGET
    PRINT BUDGET
 UBDSV2 SAVING "   CONSTANT HEAD" ON UNIT   9 AT TIME STEP  1, STRESS PERIOD   1
 UBDSV1 SAVING "FLOW RIGHT FACE " ON UNIT   9 AT TIME STEP  1, STRESS PERIOD   1
 UBDSV1 SAVING "FLOW FRONT FACE " ON UNIT   9 AT TIME STEP  1, STRESS PERIOD   1
 UBDSV4 SAVING "           WELLS" ON UNIT   9 AT TIME STEP  1, STRESS PERIOD   1

 SAVING SATURATED THICKNESS AND FLOW TERMS ON UNIT  136 FOR MT3DMS
 BY THE LINK-MT3DMS PACKAGE V7 AT TIME STEP    1, STRESS PERIOD    1


 HEAD WILL BE SAVED ON UNIT   37 AT END OF TIME STEP    1, STRESS PERIOD    1

 DRAWDOWN WILL BE SAVED ON UNIT   38 AT END OF TIME STEP    1, STRESS PERIOD    1
1
  VOLUMETRIC BUDGET FOR ENTIRE MODEL AT END OF TIME STEP    1, STRESS PERIOD   1
  ------------------------------------------------------------------------------

     CUMULATIVE VOLUMES      L**3       RATES FOR THIS TIME STEP      L**3/T
     ------------------                 ------------------------

           IN:                                      IN:
           ---                                      ---
             STORAGE =           0.0000               STORAGE =           0.0000
       CONSTANT HEAD =    18278088.0000         CONSTANT HEAD =       2.8960E-02
               WELLS =    15778800.0000                 WELLS =       2.5000E-02

            TOTAL IN =    34056888.0000              TOTAL IN =       5.3960E-02

          OUT:                                     OUT:
          ----                                     ----
             STORAGE =           0.0000               STORAGE =           0.0000
       CONSTANT HEAD =    32146696.0000         CONSTANT HEAD =       5.0933E-02
               WELLS =     1893456.0000                 WELLS =       3.0000E-03

           TOTAL OUT =    34040152.0000             TOTAL OUT =       5.3933E-02

            IN - OUT =       16736.0000              IN - OUT =       2.6520E-05

 PERCENT DISCREPANCY =           0.05     PERCENT DISCREPANCY =           0.05






         TIME SUMMARY AT END OF TIME STEP    1 IN STRESS PERIOD    1
                    SECONDS     MINUTES      HOURS       DAYS        YEARS
                    -----------------------------------------------------------
   TIME STEP LENGTH 6.31152E+08 1.05192E+07 1.75320E+05  7305.0      20.000    
 STRESS PERIOD TIME 6.31152E+08 1.05192E+07 1.75320E+05  7305.0      20.000    
         TOTAL TIME 6.31152E+08 1.05192E+07 1.75320E+05  7305.0      20.000    
1

 Run end date and time (yyyy/mm/dd hh:mm:ss): 2017/05/30 17:27:14
 Elapsed run time:  0.030 Seconds

